Program Version,EnergyPlus, Version 25.1.0-1c11a3d85f, YMD=2026.02.05 13:11
! This file shows details about the branches, nodes, and other
! elements of the flow connections.
! This file is intended for use in "debugging" potential problems
! that may also be detected by the program, but may be more easily
! identified by "eye".
! This file is also intended to support software which draws a
! schematic diagram of the HVAC system.
! ===============================================================
! #Nodes,<Number of Unique Nodes>
 #Nodes,162
! <Node>,<NodeNumber>,<Node Name>,<Node Fluid Type>,<# Times Node Referenced After Definition>
 Node,1,CORE_ZN ZN AIR TERMINAL OUTLET AIR NODE,Air,3
 Node,2,CORE_ZN ZN FCU OUTLET AIR NODE,Air,3
 Node,3,CORE_ZN ZN FCU INLET AIR NODE,Air,3
 Node,4,CORE_ZN ZN RETURN AIR NODE,Air,2
 Node,5,PERIMETER_ZN_1 ZN AIR TERMINAL OUTLET AIR NODE,Air,3
 Node,6,PERIMETER_ZN_1 ZN FCU OUTLET AIR NODE,Air,3
 Node,7,PERIMETER_ZN_1 ZN FCU INLET AIR NODE,Air,3
 Node,8,PERIMETER_ZN_1 ZN RETURN AIR NODE,Air,2
 Node,9,PERIMETER_ZN_2 ZN AIR TERMINAL OUTLET AIR NODE,Air,3
 Node,10,PERIMETER_ZN_2 ZN FCU OUTLET AIR NODE,Air,3
 Node,11,PERIMETER_ZN_2 ZN FCU INLET AIR NODE,Air,3
 Node,12,PERIMETER_ZN_2 ZN RETURN AIR NODE,Air,2
 Node,13,PERIMETER_ZN_3 ZN AIR TERMINAL OUTLET AIR NODE,Air,3
 Node,14,PERIMETER_ZN_3 ZN FCU OUTLET AIR NODE,Air,3
 Node,15,PERIMETER_ZN_3 ZN FCU INLET AIR NODE,Air,3
 Node,16,PERIMETER_ZN_3 ZN RETURN AIR NODE,Air,2
 Node,17,PERIMETER_ZN_4 ZN AIR TERMINAL OUTLET AIR NODE,Air,3
 Node,18,PERIMETER_ZN_4 ZN FCU OUTLET AIR NODE,Air,3
 Node,19,PERIMETER_ZN_4 ZN FCU INLET AIR NODE,Air,3
 Node,20,PERIMETER_ZN_4 ZN RETURN AIR NODE,Air,2
 Node,21,5 ZONE DOAS SUPPLY OUTLET NODE,Air,12
 Node,22,5 ZONE DOAS DEMAND INLET NODE,Air,3
 Node,23,5 ZONE DOAS SUPPLY INLET NODE,Air,2
 Node,24,DOAS EXHAUST FAN OUTLET AIR NODE,Air,5
 Node,25,5 ZONE DOAS MIXED AIR NODE,Air,5
 Node,26,5 ZONE DOAS CLG COIL OUTLET AIR NODE,Air,5
 Node,27,5 ZONE DOAS HTG COIL OUTLET AIR NODE,Air,9
 Node,28,CHILLED WATER LOOP SUPPLY INLET NODE,Water,3
 Node,29,NODE 1,Water,6
 Node,30,CHILLED WATER LOOP PRIMARY PUMP OUTLET WATER NODE,Water,1
 Node,31,NREL ZNE READY 2017 WATERCOOLED  ROTARY SCREW CHILLER 0 SUPPLY INLET WATER NODE,Water,2
 Node,32,NREL ZNE READY 2017 WATERCOOLED  ROTARY SCREW CHILLER 0 SUPPLY OUTLET WATER NODE,Water,3
 Node,33,CHILLED WATER LOOP CHILLER BYPASS INLET WATER NODE,Water,1
 Node,34,CHILLED WATER LOOP CHILLER BYPASS OUTLET WATER NODE,Water,1
 Node,35,CHILLED WATER LOOP SUPPLY OUTLET INLET WATER NODE,Water,1
 Node,36,CHILLED WATER LOOP SUPPLY OUTLET NODE,Water,4
 Node,37,CHILLED WATER LOOP DEMAND INLET NODE,Water,2
 Node,38,CHILLED WATER LOOP SECONDARY PUMP INLET WATER NODE,Water,3
 Node,39,CHILLED WATER LOOP SECONDARY PUMP OUTLET WATER NODE,Water,1
 Node,40,CHILLED WATER LOOP COIL BYPASS INLET WATER NODE,Water,1
 Node,41,CHILLED WATER LOOP COIL BYPASS OUTLET WATER NODE,Water,1
 Node,42,5 ZONE DOAS CLG COIL INLET WATER NODE,Water,2
 Node,43,5 ZONE DOAS CLG COIL OUTLET WATER NODE,Water,1
 Node,44,PERIMETER_ZN_1 ZN FCU COOLING COIL INLET WATER NODE,Water,1
 Node,45,PERIMETER_ZN_1 ZN FCU COOLING COIL OUTLET WATER NODE,Water,1
 Node,46,CORE_ZN ZN FCU COOLING COIL INLET WATER NODE,Water,1
 Node,47,CORE_ZN ZN FCU COOLING COIL OUTLET WATER NODE,Water,1
 Node,48,PERIMETER_ZN_4 ZN FCU COOLING COIL INLET WATER NODE,Water,1
 Node,49,PERIMETER_ZN_4 ZN FCU COOLING COIL OUTLET WATER NODE,Water,1
 Node,50,PERIMETER_ZN_2 ZN FCU COOLING COIL INLET WATER NODE,Water,1
 Node,51,PERIMETER_ZN_2 ZN FCU COOLING COIL OUTLET WATER NODE,Water,1
 Node,52,PERIMETER_ZN_3 ZN FCU COOLING COIL INLET WATER NODE,Water,1
 Node,53,PERIMETER_ZN_3 ZN FCU COOLING COIL OUTLET WATER NODE,Water,1
 Node,54,CHILLED WATER LOOP DEMAND BYPASS PIPE INLET NODE,Water,1
 Node,55,CHILLED WATER LOOP DEMAND BYPASS PIPE OUTLET NODE,Water,1
 Node,56,CHILLED WATER LOOP DEMAND OUTLET INLET WATER NODE,Water,1
 Node,57,CHILLED WATER LOOP DEMAND OUTLET NODE,Water,2
 Node,58,CONDENSER WATER LOOP SUPPLY INLET NODE,Water,2
 Node,59,CONDENSER WATER LOOP CONSTANT PUMP OUTLET WATER NODE,Water,1
 Node,60,PROPELLER OR AXIAL VARIABLE SPEED FAN OPEN COOLING TOWER INLET WATER NODE,Water,1
 Node,61,PROPELLER OR AXIAL VARIABLE SPEED FAN OPEN COOLING TOWER OUTLET WATER NODE,Water,1
 Node,62,CONDENSER WATER LOOP COOLING TOWER BYPASS INLET WATER NODE,Water,1
 Node,63,CONDENSER WATER LOOP COOLING TOWER BYPASS OUTLET WATER NODE,Water,1
 Node,64,CONDENSER WATER LOOP SUPPLY OUTLET INLET WATER NODE,Water,1
 Node,65,CONDENSER WATER LOOP SUPPLY OUTLET NODE,Water,4
 Node,66,CONDENSER WATER LOOP DEMAND INLET NODE,Water,2
 Node,67,CONDENSER WATER LOOP DEMAND INLET OUTLET WATER NODE,Water,1
 Node,68,CONDENSER WATER LOOP CHILLER BYPASS INLET WATER NODE,Water,1
 Node,69,CONDENSER WATER LOOP CHILLER BYPASS OUTLET WATER NODE,Water,1
 Node,70,NREL ZNE READY 2017 WATERCOOLED  ROTARY SCREW CHILLER 0 DEMAND INLET WATER NODE,Water,1
 Node,71,NREL ZNE READY 2017 WATERCOOLED  ROTARY SCREW CHILLER 0 DEMAND OUTLET WATER NODE,Water,1
 Node,72,NODE 2,Water,1
 Node,73,NODE 3,Water,1
 Node,74,CONDENSER WATER LOOP DEMAND BYPASS PIPE INLET NODE,Water,1
 Node,75,CONDENSER WATER LOOP DEMAND BYPASS PIPE OUTLET NODE,Water,1
 Node,76,CONDENSER WATER LOOP DEMAND OUTLET INLET WATER NODE,Water,1
 Node,77,CONDENSER WATER LOOP DEMAND OUTLET NODE,Water,2
 Node,78,HOT WATER LOOP SUPPLY INLET NODE,Water,2
 Node,79,HOT WATER LOOP PUMP OUTLET WATER NODE,Water,1
 Node,80,BOILER INLET WATER NODE,Water,1
 Node,81,BOILER OUTLET WATER NODE,Water,1
 Node,82,HOT WATER LOOP SUPPLY EQUIPMENT BYPASS INLET WATER NODE,Water,1
 Node,83,HOT WATER LOOP SUPPLY EQUIPMENT BYPASS OUTLET WATER NODE,Water,1
 Node,84,HOT WATER LOOP SUPPLY OUTLET INLET WATER NODE,Water,1
 Node,85,HOT WATER LOOP SUPPLY OUTLET NODE,Water,4
 Node,86,HOT WATER LOOP DEMAND INLET NODE,Water,2
 Node,87,HOT WATER LOOP DEMAND INLET OUTLET WATER NODE,Water,1
 Node,88,HOT WATER LOOP COIL BYPASS INLET WATER NODE,Water,1
 Node,89,HOT WATER LOOP COIL BYPASS OUTLET WATER NODE,Water,1
 Node,90,5 ZONE DOAS HTG COIL INLET WATER NODE,Water,2
 Node,91,5 ZONE DOAS HTG COIL OUTLET WATER NODE,Water,1
 Node,92,PERIMETER_ZN_1 ZN FCU HEATING COIL INLET WATER NODE,Water,1
 Node,93,PERIMETER_ZN_1 ZN FCU HEATING COIL OUTLET WATER NODE,Water,1
 Node,94,CORE_ZN ZN FCU HEATING COIL INLET WATER NODE,Water,1
 Node,95,CORE_ZN ZN FCU HEATING COIL OUTLET WATER NODE,Water,1
 Node,96,PERIMETER_ZN_4 ZN FCU HEATING COIL INLET WATER NODE,Water,1
 Node,97,PERIMETER_ZN_4 ZN FCU HEATING COIL OUTLET WATER NODE,Water,1
 Node,98,PERIMETER_ZN_2 ZN FCU HEATING COIL INLET WATER NODE,Water,1
 Node,99,PERIMETER_ZN_2 ZN FCU HEATING COIL OUTLET WATER NODE,Water,1
 Node,100,PERIMETER_ZN_3 ZN FCU HEATING COIL INLET WATER NODE,Water,1
 Node,101,PERIMETER_ZN_3 ZN FCU HEATING COIL OUTLET WATER NODE,Water,1
 Node,102,HOT WATER LOOP DEMAND BYPASS PIPE INLET NODE,Water,1
 Node,103,HOT WATER LOOP DEMAND BYPASS PIPE OUTLET NODE,Water,1
 Node,104,HOT WATER LOOP DEMAND OUTLET INLET WATER NODE,Water,1
 Node,105,HOT WATER LOOP DEMAND OUTLET NODE,Water,2
 Node,106,MAIN SERVICE WATER LOOP SUPPLY INLET NODE,Water,2
 Node,107,MAIN SERVICE WATER LOOP WATER MAINS PRESSURE DRIVEN OUTLET WATER NODE,Water,1
 Node,108,40GAL ELECTRICITY WATER HEATER - 40KBTU/HR 1.0 THERM EFF SUPPLY INLET WATER NODE,Water,1
 Node,109,40GAL ELECTRICITY WATER HEATER - 40KBTU/HR 1.0 THERM EFF SUPPLY OUTLET WATER NODE,Water,1
 Node,110,PIPE ADIABATIC 1 INLET WATER NODE,Water,1
 Node,111,PIPE ADIABATIC 1 OUTLET WATER NODE,Water,1
 Node,112,PIPE ADIABATIC 3 INLET WATER NODE,Water,1
 Node,113,MAIN SERVICE WATER LOOP SUPPLY OUTLET NODE,Water,4
 Node,114,MAIN SERVICE WATER LOOP DEMAND INLET NODE,Water,2
 Node,115,MAIN SERVICE WATER LOOP DEMAND INLET PIPE NODE,Water,1
 Node,116,PIPE ADIABATIC 2 INLET WATER NODE,Water,1
 Node,117,PIPE ADIABATIC 2 OUTLET WATER NODE,Water,1
 Node,118,MAIN WUC 0.06GPM 140F INLET WATER NODE,Water,1
 Node,119,MAIN WUC 0.06GPM 140F OUTLET WATER NODE,Water,1
 Node,120,MAIN SERVICE WATER LOOP DEMAND BYPASS PIPE INLET NODE,Water,1
 Node,121,MAIN SERVICE WATER LOOP DEMAND BYPASS PIPE OUTLET NODE,Water,1
 Node,122,PIPE ADIABATIC 4 INLET WATER NODE,Water,1
 Node,123,MAIN SERVICE WATER LOOP DEMAND OUTLET NODE,Water,2
 Node,124,CORE_ZN ZN ZONE AIR NODE,Air,0
 Node,125,PERIMETER_ZN_1 ZN ZONE AIR NODE,Air,0
 Node,126,PERIMETER_ZN_2 ZN ZONE AIR NODE,Air,0
 Node,127,PERIMETER_ZN_3 ZN ZONE AIR NODE,Air,0
 Node,128,PERIMETER_ZN_4 ZN ZONE AIR NODE,Air,0
 Node,129,5 ZONE DOAS DEMAND OUTLET NODE,Air,2
 Node,130,CORE_ZN ZN FCU OA NODE,Air,1
 Node,131,PERIMETER_ZN_1 ZN FCU OA NODE,Air,1
 Node,132,PERIMETER_ZN_2 ZN FCU OA NODE,Air,1
 Node,133,PERIMETER_ZN_3 ZN FCU OA NODE,Air,1
 Node,134,PERIMETER_ZN_4 ZN FCU OA NODE,Air,1
 Node,135,5 ZONE DOAS OUTDOOR AIR NODE,Air,2
 Node,136,MODEL OUTDOOR AIR NODE,Air,0
 Node,137,PERIMETER_ZN_1 ZN AIR TERMINAL INLET AIR NODE,Air,1
 Node,138,CORE_ZN ZN AIR TERMINAL INLET AIR NODE,Air,1
 Node,139,PERIMETER_ZN_4 ZN AIR TERMINAL INLET AIR NODE,Air,1
 Node,140,PERIMETER_ZN_2 ZN AIR TERMINAL INLET AIR NODE,Air,1
 Node,141,PERIMETER_ZN_3 ZN AIR TERMINAL INLET AIR NODE,Air,1
 Node,142,CORE_ZN ZN FCU MIXED AIR NODE,Air,1
 Node,143,CORE_ZN ZN FCU RELIEF AIR NODE,Air,0
 Node,144,PERIMETER_ZN_1 ZN FCU MIXED AIR NODE,Air,1
 Node,145,PERIMETER_ZN_1 ZN FCU RELIEF AIR NODE,Air,0
 Node,146,PERIMETER_ZN_2 ZN FCU MIXED AIR NODE,Air,1
 Node,147,PERIMETER_ZN_2 ZN FCU RELIEF AIR NODE,Air,0
 Node,148,PERIMETER_ZN_3 ZN FCU MIXED AIR NODE,Air,1
 Node,149,PERIMETER_ZN_3 ZN FCU RELIEF AIR NODE,Air,0
 Node,150,PERIMETER_ZN_4 ZN FCU MIXED AIR NODE,Air,1
 Node,151,PERIMETER_ZN_4 ZN FCU RELIEF AIR NODE,Air,0
 Node,152,5 ZONE DOAS RELIEF AIR NODE,Air,1
 Node,153,CORE_ZN ZN FCU COOLING COIL OUTLET NODE,Air,1
 Node,154,PERIMETER_ZN_1 ZN FCU COOLING COIL OUTLET NODE,Air,1
 Node,155,PERIMETER_ZN_2 ZN FCU COOLING COIL OUTLET NODE,Air,1
 Node,156,PERIMETER_ZN_3 ZN FCU COOLING COIL OUTLET NODE,Air,1
 Node,157,PERIMETER_ZN_4 ZN FCU COOLING COIL OUTLET NODE,Air,1
 Node,158,CORE_ZN ZN FCU FAN OUTLET NODE,Air,1
 Node,159,PERIMETER_ZN_1 ZN FCU FAN OUTLET NODE,Air,1
 Node,160,PERIMETER_ZN_2 ZN FCU FAN OUTLET NODE,Air,1
 Node,161,PERIMETER_ZN_3 ZN FCU FAN OUTLET NODE,Air,1
 Node,162,PERIMETER_ZN_4 ZN FCU FAN OUTLET NODE,Air,1
! ===============================================================
! Suspicious nodes have 0 references.  It is normal for some nodes, however.
! Listing nodes with 0 references (culled from previous list):
! <Suspicious Node>,<NodeNumber>,<Node Name>,<Node Fluid Type>,<# Times Node Referenced After Definition>
 Suspicious Node,124,CORE_ZN ZN ZONE AIR NODE,Air,0
 Suspicious Node,125,PERIMETER_ZN_1 ZN ZONE AIR NODE,Air,0
 Suspicious Node,126,PERIMETER_ZN_2 ZN ZONE AIR NODE,Air,0
 Suspicious Node,127,PERIMETER_ZN_3 ZN ZONE AIR NODE,Air,0
 Suspicious Node,128,PERIMETER_ZN_4 ZN ZONE AIR NODE,Air,0
 Suspicious Node,136,MODEL OUTDOOR AIR NODE,Air,0
 Suspicious Node,143,CORE_ZN ZN FCU RELIEF AIR NODE,Air,0
 Suspicious Node,145,PERIMETER_ZN_1 ZN FCU RELIEF AIR NODE,Air,0
 Suspicious Node,147,PERIMETER_ZN_2 ZN FCU RELIEF AIR NODE,Air,0
 Suspicious Node,149,PERIMETER_ZN_3 ZN FCU RELIEF AIR NODE,Air,0
 Suspicious Node,151,PERIMETER_ZN_4 ZN FCU RELIEF AIR NODE,Air,0
! ===============================================================
! <#Branch Lists>,<Number of Branch Lists>
 #Branch Lists,9
! <Branch List>,<Branch List Count>,<Branch List Name>,<Loop Name>,<Loop Type>,<Number of Branches>
! <Branch>,<Branch Count>,<Branch Name>,<Loop Name>,<Loop Type>,<Branch Inlet Node Name>,<Branch Outlet Node Name>
 Branch List,1,5 ZONE DOAS SUPPLY BRANCHES,5 ZONE DOAS,Air,1
   Branch,1,5 ZONE DOAS MAIN BRANCH,5 ZONE DOAS,Air,5 ZONE DOAS SUPPLY INLET NODE,5 ZONE DOAS SUPPLY OUTLET NODE
 Branch List,2,CHILLED WATER LOOP SUPPLY BRANCHES,CHILLED WATER LOOP,Plant Supply,4
   Branch,1,CHILLED WATER LOOP SUPPLY INLET BRANCH,CHILLED WATER LOOP,Plant Supply,CHILLED WATER LOOP SUPPLY INLET NODE,CHILLED WATER LOOP PRIMARY PUMP OUTLET WATER NODE
   Branch,2,CHILLED WATER LOOP SUPPLY BRANCH 1,CHILLED WATER LOOP,Plant Supply,NREL ZNE READY 2017 WATERCOOLED  ROTARY SCREW CHILLER 0 SUPPLY INLET WATER NODE,NREL ZNE READY 2017 WATERCOOLED  ROTARY SCREW CHILLER 0 SUPPLY OUTLET WATER NODE
   Branch,3,CHILLED WATER LOOP SUPPLY BRANCH 2,CHILLED WATER LOOP,Plant Supply,CHILLED WATER LOOP CHILLER BYPASS INLET WATER NODE,CHILLED WATER LOOP CHILLER BYPASS OUTLET WATER NODE
   Branch,4,CHILLED WATER LOOP SUPPLY OUTLET BRANCH,CHILLED WATER LOOP,Plant Supply,CHILLED WATER LOOP SUPPLY OUTLET INLET WATER NODE,CHILLED WATER LOOP SUPPLY OUTLET NODE
 Branch List,3,CHILLED WATER LOOP DEMAND BRANCHES,CHILLED WATER LOOP,Plant Demand,10
   Branch,1,CHILLED WATER LOOP DEMAND INLET BRANCH,CHILLED WATER LOOP,Plant Demand,CHILLED WATER LOOP DEMAND INLET NODE,CHILLED WATER LOOP SECONDARY PUMP OUTLET WATER NODE
   Branch,2,CHILLED WATER LOOP DEMAND BRANCH 1,CHILLED WATER LOOP,Plant Demand,CHILLED WATER LOOP COIL BYPASS INLET WATER NODE,CHILLED WATER LOOP COIL BYPASS OUTLET WATER NODE
   Branch,3,CHILLED WATER LOOP DEMAND BRANCH 2,CHILLED WATER LOOP,Plant Demand,5 ZONE DOAS CLG COIL INLET WATER NODE,5 ZONE DOAS CLG COIL OUTLET WATER NODE
   Branch,4,CHILLED WATER LOOP DEMAND BRANCH 3,CHILLED WATER LOOP,Plant Demand,PERIMETER_ZN_1 ZN FCU COOLING COIL INLET WATER NODE,PERIMETER_ZN_1 ZN FCU COOLING COIL OUTLET WATER NODE
   Branch,5,CHILLED WATER LOOP DEMAND BRANCH 4,CHILLED WATER LOOP,Plant Demand,CORE_ZN ZN FCU COOLING COIL INLET WATER NODE,CORE_ZN ZN FCU COOLING COIL OUTLET WATER NODE
   Branch,6,CHILLED WATER LOOP DEMAND BRANCH 5,CHILLED WATER LOOP,Plant Demand,PERIMETER_ZN_4 ZN FCU COOLING COIL INLET WATER NODE,PERIMETER_ZN_4 ZN FCU COOLING COIL OUTLET WATER NODE
   Branch,7,CHILLED WATER LOOP DEMAND BRANCH 6,CHILLED WATER LOOP,Plant Demand,PERIMETER_ZN_2 ZN FCU COOLING COIL INLET WATER NODE,PERIMETER_ZN_2 ZN FCU COOLING COIL OUTLET WATER NODE
   Branch,8,CHILLED WATER LOOP DEMAND BRANCH 7,CHILLED WATER LOOP,Plant Demand,PERIMETER_ZN_3 ZN FCU COOLING COIL INLET WATER NODE,PERIMETER_ZN_3 ZN FCU COOLING COIL OUTLET WATER NODE
   Branch,9,CHILLED WATER LOOP DEMAND BYPASS BRANCH,CHILLED WATER LOOP,Plant Demand,CHILLED WATER LOOP DEMAND BYPASS PIPE INLET NODE,CHILLED WATER LOOP DEMAND BYPASS PIPE OUTLET NODE
   Branch,10,CHILLED WATER LOOP DEMAND OUTLET BRANCH,CHILLED WATER LOOP,Plant Demand,CHILLED WATER LOOP DEMAND OUTLET INLET WATER NODE,CHILLED WATER LOOP DEMAND OUTLET NODE
 Branch List,4,CONDENSER WATER LOOP SUPPLY BRANCHES,CONDENSER WATER LOOP,Plant Supply,4
   Branch,1,CONDENSER WATER LOOP SUPPLY INLET BRANCH,CONDENSER WATER LOOP,Plant Supply,CONDENSER WATER LOOP SUPPLY INLET NODE,CONDENSER WATER LOOP CONSTANT PUMP OUTLET WATER NODE
   Branch,2,CONDENSER WATER LOOP SUPPLY BRANCH 1,CONDENSER WATER LOOP,Plant Supply,PROPELLER OR AXIAL VARIABLE SPEED FAN OPEN COOLING TOWER INLET WATER NODE,PROPELLER OR AXIAL VARIABLE SPEED FAN OPEN COOLING TOWER OUTLET WATER NODE
   Branch,3,CONDENSER WATER LOOP SUPPLY BRANCH 2,CONDENSER WATER LOOP,Plant Supply,CONDENSER WATER LOOP COOLING TOWER BYPASS INLET WATER NODE,CONDENSER WATER LOOP COOLING TOWER BYPASS OUTLET WATER NODE
   Branch,4,CONDENSER WATER LOOP SUPPLY OUTLET BRANCH,CONDENSER WATER LOOP,Plant Supply,CONDENSER WATER LOOP SUPPLY OUTLET INLET WATER NODE,CONDENSER WATER LOOP SUPPLY OUTLET NODE
 Branch List,5,CONDENSER WATER LOOP DEMAND BRANCHES,CONDENSER WATER LOOP,Plant Demand,6
   Branch,1,CONDENSER WATER LOOP DEMAND INLET BRANCH,CONDENSER WATER LOOP,Plant Demand,CONDENSER WATER LOOP DEMAND INLET NODE,CONDENSER WATER LOOP DEMAND INLET OUTLET WATER NODE
   Branch,2,CONDENSER WATER LOOP DEMAND BRANCH 1,CONDENSER WATER LOOP,Plant Demand,CONDENSER WATER LOOP CHILLER BYPASS INLET WATER NODE,CONDENSER WATER LOOP CHILLER BYPASS OUTLET WATER NODE
   Branch,3,CONDENSER WATER LOOP DEMAND BRANCH 2,CONDENSER WATER LOOP,Plant Demand,NREL ZNE READY 2017 WATERCOOLED  ROTARY SCREW CHILLER 0 DEMAND INLET WATER NODE,NREL ZNE READY 2017 WATERCOOLED  ROTARY SCREW CHILLER 0 DEMAND OUTLET WATER NODE
   Branch,4,CONDENSER WATER LOOP DEMAND BRANCH 3,CONDENSER WATER LOOP,Plant Demand,NODE 2,NODE 3
   Branch,5,CONDENSER WATER LOOP DEMAND BYPASS BRANCH,CONDENSER WATER LOOP,Plant Demand,CONDENSER WATER LOOP DEMAND BYPASS PIPE INLET NODE,CONDENSER WATER LOOP DEMAND BYPASS PIPE OUTLET NODE
   Branch,6,CONDENSER WATER LOOP DEMAND OUTLET BRANCH,CONDENSER WATER LOOP,Plant Demand,CONDENSER WATER LOOP DEMAND OUTLET INLET WATER NODE,CONDENSER WATER LOOP DEMAND OUTLET NODE
 Branch List,6,HOT WATER LOOP SUPPLY BRANCHES,HOT WATER LOOP,Plant Supply,4
   Branch,1,HOT WATER LOOP SUPPLY INLET BRANCH,HOT WATER LOOP,Plant Supply,HOT WATER LOOP SUPPLY INLET NODE,HOT WATER LOOP PUMP OUTLET WATER NODE
   Branch,2,HOT WATER LOOP SUPPLY BRANCH 1,HOT WATER LOOP,Plant Supply,BOILER INLET WATER NODE,BOILER OUTLET WATER NODE
   Branch,3,HOT WATER LOOP SUPPLY BRANCH 2,HOT WATER LOOP,Plant Supply,HOT WATER LOOP SUPPLY EQUIPMENT BYPASS INLET WATER NODE,HOT WATER LOOP SUPPLY EQUIPMENT BYPASS OUTLET WATER NODE
   Branch,4,HOT WATER LOOP SUPPLY OUTLET BRANCH,HOT WATER LOOP,Plant Supply,HOT WATER LOOP SUPPLY OUTLET INLET WATER NODE,HOT WATER LOOP SUPPLY OUTLET NODE
 Branch List,7,HOT WATER LOOP DEMAND BRANCHES,HOT WATER LOOP,Plant Demand,10
   Branch,1,HOT WATER LOOP DEMAND INLET BRANCH,HOT WATER LOOP,Plant Demand,HOT WATER LOOP DEMAND INLET NODE,HOT WATER LOOP DEMAND INLET OUTLET WATER NODE
   Branch,2,HOT WATER LOOP DEMAND BRANCH 1,HOT WATER LOOP,Plant Demand,HOT WATER LOOP COIL BYPASS INLET WATER NODE,HOT WATER LOOP COIL BYPASS OUTLET WATER NODE
   Branch,3,HOT WATER LOOP DEMAND BRANCH 2,HOT WATER LOOP,Plant Demand,5 ZONE DOAS HTG COIL INLET WATER NODE,5 ZONE DOAS HTG COIL OUTLET WATER NODE
   Branch,4,HOT WATER LOOP DEMAND BRANCH 3,HOT WATER LOOP,Plant Demand,PERIMETER_ZN_1 ZN FCU HEATING COIL INLET WATER NODE,PERIMETER_ZN_1 ZN FCU HEATING COIL OUTLET WATER NODE
   Branch,5,HOT WATER LOOP DEMAND BRANCH 4,HOT WATER LOOP,Plant Demand,CORE_ZN ZN FCU HEATING COIL INLET WATER NODE,CORE_ZN ZN FCU HEATING COIL OUTLET WATER NODE
   Branch,6,HOT WATER LOOP DEMAND BRANCH 5,HOT WATER LOOP,Plant Demand,PERIMETER_ZN_4 ZN FCU HEATING COIL INLET WATER NODE,PERIMETER_ZN_4 ZN FCU HEATING COIL OUTLET WATER NODE
   Branch,7,HOT WATER LOOP DEMAND BRANCH 6,HOT WATER LOOP,Plant Demand,PERIMETER_ZN_2 ZN FCU HEATING COIL INLET WATER NODE,PERIMETER_ZN_2 ZN FCU HEATING COIL OUTLET WATER NODE
   Branch,8,HOT WATER LOOP DEMAND BRANCH 7,HOT WATER LOOP,Plant Demand,PERIMETER_ZN_3 ZN FCU HEATING COIL INLET WATER NODE,PERIMETER_ZN_3 ZN FCU HEATING COIL OUTLET WATER NODE
   Branch,9,HOT WATER LOOP DEMAND BYPASS BRANCH,HOT WATER LOOP,Plant Demand,HOT WATER LOOP DEMAND BYPASS PIPE INLET NODE,HOT WATER LOOP DEMAND BYPASS PIPE OUTLET NODE
   Branch,10,HOT WATER LOOP DEMAND OUTLET BRANCH,HOT WATER LOOP,Plant Demand,HOT WATER LOOP DEMAND OUTLET INLET WATER NODE,HOT WATER LOOP DEMAND OUTLET NODE
 Branch List,8,MAIN SERVICE WATER LOOP SUPPLY BRANCHES,MAIN SERVICE WATER LOOP,Plant Supply,4
   Branch,1,MAIN SERVICE WATER LOOP SUPPLY INLET BRANCH,MAIN SERVICE WATER LOOP,Plant Supply,MAIN SERVICE WATER LOOP SUPPLY INLET NODE,MAIN SERVICE WATER LOOP WATER MAINS PRESSURE DRIVEN OUTLET WATER NODE
   Branch,2,MAIN SERVICE WATER LOOP SUPPLY BRANCH 1,MAIN SERVICE WATER LOOP,Plant Supply,40GAL ELECTRICITY WATER HEATER - 40KBTU/HR 1.0 THERM EFF SUPPLY INLET WATER NODE,40GAL ELECTRICITY WATER HEATER - 40KBTU/HR 1.0 THERM EFF SUPPLY OUTLET WATER NODE
   Branch,3,MAIN SERVICE WATER LOOP SUPPLY BRANCH 2,MAIN SERVICE WATER LOOP,Plant Supply,PIPE ADIABATIC 1 INLET WATER NODE,PIPE ADIABATIC 1 OUTLET WATER NODE
   Branch,4,MAIN SERVICE WATER LOOP SUPPLY OUTLET BRANCH,MAIN SERVICE WATER LOOP,Plant Supply,PIPE ADIABATIC 3 INLET WATER NODE,MAIN SERVICE WATER LOOP SUPPLY OUTLET NODE
 Branch List,9,MAIN SERVICE WATER LOOP DEMAND BRANCHES,MAIN SERVICE WATER LOOP,Plant Demand,5
   Branch,1,MAIN SERVICE WATER LOOP DEMAND INLET BRANCH,MAIN SERVICE WATER LOOP,Plant Demand,MAIN SERVICE WATER LOOP DEMAND INLET NODE,MAIN SERVICE WATER LOOP DEMAND INLET PIPE NODE
   Branch,2,MAIN SERVICE WATER LOOP DEMAND BRANCH 1,MAIN SERVICE WATER LOOP,Plant Demand,PIPE ADIABATIC 2 INLET WATER NODE,PIPE ADIABATIC 2 OUTLET WATER NODE
   Branch,3,MAIN SERVICE WATER LOOP DEMAND BRANCH 2,MAIN SERVICE WATER LOOP,Plant Demand,MAIN WUC 0.06GPM 140F INLET WATER NODE,MAIN WUC 0.06GPM 140F OUTLET WATER NODE
   Branch,4,MAIN SERVICE WATER LOOP DEMAND BYPASS BRANCH,MAIN SERVICE WATER LOOP,Plant Demand,MAIN SERVICE WATER LOOP DEMAND BYPASS PIPE INLET NODE,MAIN SERVICE WATER LOOP DEMAND BYPASS PIPE OUTLET NODE
   Branch,5,MAIN SERVICE WATER LOOP DEMAND OUTLET BRANCH,MAIN SERVICE WATER LOOP,Plant Demand,PIPE ADIABATIC 4 INLET WATER NODE,MAIN SERVICE WATER LOOP DEMAND OUTLET NODE
! ===============================================================
! <#Supply Air Paths>,<Number of Supply Air Paths>
 #Supply Air Paths,1
! <Supply Air Path>,<Supply Air Path Count>,<Supply Air Path Name>,<AirLoopHVAC Name>
! <#Components on Supply Air Path>,<Number of Components>
! <Supply Air Path Component>,<Component Count>,<Component Type>,<Component Name>,<AirLoopHVAC Name>
! <#Outlet Nodes on Supply Air Path Component>,<Number of Nodes>
! <Supply Air Path Component Nodes>,<Node Count>,<Component Type>,<Component Name>,<Inlet Node Name>,<Outlet Node Name>,<AirLoopHVAC Name>
 Supply Air Path,1,5 ZONE DOAS 5 ZONE DOAS DEMAND INLET NODE SUPPLY PATH,5 ZONE DOAS
   #Components on Supply Air Path,1
   Supply Air Path Component,1,AIRLOOPHVAC:ZONESPLITTER,AIR LOOP HVAC ZONE SPLITTER 1,5 ZONE DOAS
     #Outlet Nodes on Supply Air Path Component,5
     Supply Air Path Component Nodes,1,AIRLOOPHVAC:ZONESPLITTER,AIR LOOP HVAC ZONE SPLITTER 1,5 ZONE DOAS DEMAND INLET NODE,PERIMETER_ZN_1 ZN AIR TERMINAL INLET AIR NODE,5 ZONE DOAS
     Supply Air Path Component Nodes,2,AIRLOOPHVAC:ZONESPLITTER,AIR LOOP HVAC ZONE SPLITTER 1,5 ZONE DOAS DEMAND INLET NODE,CORE_ZN ZN AIR TERMINAL INLET AIR NODE,5 ZONE DOAS
     Supply Air Path Component Nodes,3,AIRLOOPHVAC:ZONESPLITTER,AIR LOOP HVAC ZONE SPLITTER 1,5 ZONE DOAS DEMAND INLET NODE,PERIMETER_ZN_4 ZN AIR TERMINAL INLET AIR NODE,5 ZONE DOAS
     Supply Air Path Component Nodes,4,AIRLOOPHVAC:ZONESPLITTER,AIR LOOP HVAC ZONE SPLITTER 1,5 ZONE DOAS DEMAND INLET NODE,PERIMETER_ZN_2 ZN AIR TERMINAL INLET AIR NODE,5 ZONE DOAS
     Supply Air Path Component Nodes,5,AIRLOOPHVAC:ZONESPLITTER,AIR LOOP HVAC ZONE SPLITTER 1,5 ZONE DOAS DEMAND INLET NODE,PERIMETER_ZN_3 ZN AIR TERMINAL INLET AIR NODE,5 ZONE DOAS
! <#Nodes on Supply Air Path>,<Number of Nodes>
! <Supply Air Path Node>,<Node Type>,<Node Count>,<Node Name>,<AirLoopHVAC Name>
#Nodes on Supply Air Path,6
   Supply Air Path Node,Inlet Node,1,5 ZONE DOAS DEMAND INLET NODE,5 ZONE DOAS
   Supply Air Path Node,Outlet Node,2,PERIMETER_ZN_1 ZN AIR TERMINAL INLET AIR NODE,5 ZONE DOAS
   Supply Air Path Node,Outlet Node,3,CORE_ZN ZN AIR TERMINAL INLET AIR NODE,5 ZONE DOAS
   Supply Air Path Node,Outlet Node,4,PERIMETER_ZN_4 ZN AIR TERMINAL INLET AIR NODE,5 ZONE DOAS
   Supply Air Path Node,Outlet Node,5,PERIMETER_ZN_2 ZN AIR TERMINAL INLET AIR NODE,5 ZONE DOAS
   Supply Air Path Node,Outlet Node,6,PERIMETER_ZN_3 ZN AIR TERMINAL INLET AIR NODE,5 ZONE DOAS
! ===============================================================
! <#Return Air Paths>,<Number of Return Air Paths>
 #Return Air Paths,1
! <Return Air Path>,<Return Air Path Count>,<Return Air Path Name>,<AirLoopHVAC Name>
! <#Components on Return Air Path>,<Number of Components>
! <Return Air Path Component>,<Component Count>,<Component Type>,<Component Name>,<AirLoopHVAC Name>
! <#Inlet Nodes on Return Air Path Component>,<Number of Nodes>
! <Return Air Path Component Nodes>,<Node Count>,<Component Type>,<Component Name>,<Inlet Node Name>,<Outlet Node Name>,<AirLoopHVAC Name>
 Return Air Path,1,5 ZONE DOAS RETURN PATH,5 ZONE DOAS
   #Components on Return Air Path,1
   Return Air Path Component,1,AIRLOOPHVAC:ZONEMIXER,AIR LOOP HVAC ZONE MIXER 1,5 ZONE DOAS
     #Inlet Nodes on Return Air Path Component,5
     Return Air Path Component Nodes,1,AIRLOOPHVAC:ZONEMIXER,AIR LOOP HVAC ZONE MIXER 1,PERIMETER_ZN_1 ZN RETURN AIR NODE,5 ZONE DOAS DEMAND OUTLET NODE,5 ZONE DOAS
     Return Air Path Component Nodes,2,AIRLOOPHVAC:ZONEMIXER,AIR LOOP HVAC ZONE MIXER 1,CORE_ZN ZN RETURN AIR NODE,5 ZONE DOAS DEMAND OUTLET NODE,5 ZONE DOAS
     Return Air Path Component Nodes,3,AIRLOOPHVAC:ZONEMIXER,AIR LOOP HVAC ZONE MIXER 1,PERIMETER_ZN_4 ZN RETURN AIR NODE,5 ZONE DOAS DEMAND OUTLET NODE,5 ZONE DOAS
     Return Air Path Component Nodes,4,AIRLOOPHVAC:ZONEMIXER,AIR LOOP HVAC ZONE MIXER 1,PERIMETER_ZN_2 ZN RETURN AIR NODE,5 ZONE DOAS DEMAND OUTLET NODE,5 ZONE DOAS
     Return Air Path Component Nodes,5,AIRLOOPHVAC:ZONEMIXER,AIR LOOP HVAC ZONE MIXER 1,PERIMETER_ZN_3 ZN RETURN AIR NODE,5 ZONE DOAS DEMAND OUTLET NODE,5 ZONE DOAS
! <#Nodes on Return Air Path>,<Number of Nodes>
! <Return Air Path Node>,<Node Type>,<Node Count>,<Node Name>,<AirLoopHVAC Name>
   #Nodes on Return Air Path,6
   Return Air Path Node,Outlet Node,1,5 ZONE DOAS DEMAND OUTLET NODE,5 ZONE DOAS
   Return Air Path Node,Inlet Node,2,PERIMETER_ZN_1 ZN RETURN AIR NODE,5 ZONE DOAS
   Return Air Path Node,Inlet Node,3,CORE_ZN ZN RETURN AIR NODE,5 ZONE DOAS
   Return Air Path Node,Inlet Node,4,PERIMETER_ZN_4 ZN RETURN AIR NODE,5 ZONE DOAS
   Return Air Path Node,Inlet Node,5,PERIMETER_ZN_2 ZN RETURN AIR NODE,5 ZONE DOAS
   Return Air Path Node,Inlet Node,6,PERIMETER_ZN_3 ZN RETURN AIR NODE,5 ZONE DOAS
! ===============================================================
! #Outdoor Air Nodes,<Number of Outdoor Air Nodes>
 #Outdoor Air Nodes,7
! <Outdoor Air Node>,<NodeNumber>,<Node Name>
 Outdoor Air Node,130,CORE_ZN ZN FCU OA NODE
 Outdoor Air Node,131,PERIMETER_ZN_1 ZN FCU OA NODE
 Outdoor Air Node,132,PERIMETER_ZN_2 ZN FCU OA NODE
 Outdoor Air Node,133,PERIMETER_ZN_3 ZN FCU OA NODE
 Outdoor Air Node,134,PERIMETER_ZN_4 ZN FCU OA NODE
 Outdoor Air Node,135,5 ZONE DOAS OUTDOOR AIR NODE
 Outdoor Air Node,136,MODEL OUTDOOR AIR NODE
! ===============================================================
! <#Component Sets>,<Number of Component Sets>
 #Component Sets,80
! <Component Set>,<Component Set Count>,<Parent Object Type>,<Parent Object Name>,<Component Type>,<Component Name>,<Inlet Node ID>,<Outlet Node ID>,<Description>
 Component Set,1,BRANCH,5 ZONE DOAS MAIN BRANCH,FAN:VARIABLEVOLUME,DOAS EXHAUST FAN,5 ZONE DOAS SUPPLY INLET NODE,DOAS EXHAUST FAN OUTLET AIR NODE,Air Nodes
 Component Set,2,BRANCH,5 ZONE DOAS MAIN BRANCH,AIRLOOPHVAC:OUTDOORAIRSYSTEM,5 ZONE DOAS OA SYSTEM,DOAS EXHAUST FAN OUTLET AIR NODE,5 ZONE DOAS MIXED AIR NODE,Air Nodes
 Component Set,3,BRANCH,5 ZONE DOAS MAIN BRANCH,COIL:COOLING:WATER,5 ZONE DOAS CLG COIL,5 ZONE DOAS MIXED AIR NODE,5 ZONE DOAS CLG COIL OUTLET AIR NODE,Air Nodes
 Component Set,4,BRANCH,5 ZONE DOAS MAIN BRANCH,COIL:HEATING:WATER,5 ZONE DOAS HTG COIL,5 ZONE DOAS CLG COIL OUTLET AIR NODE,5 ZONE DOAS HTG COIL OUTLET AIR NODE,Air Nodes
 Component Set,5,BRANCH,5 ZONE DOAS MAIN BRANCH,FAN:VARIABLEVOLUME,DOAS SUPPLY FAN,5 ZONE DOAS HTG COIL OUTLET AIR NODE,5 ZONE DOAS SUPPLY OUTLET NODE,Air Nodes
 Component Set,6,BRANCH,CHILLED WATER LOOP SUPPLY INLET BRANCH,HEATEXCHANGER:FLUIDTOFLUID,INTEGRATED WATERSIDE ECONOMIZER HEAT EXCHANGER,CHILLED WATER LOOP SUPPLY INLET NODE,NODE 1,Loop Supply Side Plant Nodes
 Component Set,7,BRANCH,CHILLED WATER LOOP SUPPLY INLET BRANCH,PUMP:CONSTANTSPEED,CHILLED WATER LOOP PRIMARY PUMP,NODE 1,CHILLED WATER LOOP PRIMARY PUMP OUTLET WATER NODE,Water Nodes
 Component Set,8,BRANCH,CHILLED WATER LOOP SUPPLY BRANCH 1,CHILLER:ELECTRIC:EIR,NREL ZNE READY 2017 WATERCOOLED  ROTARY SCREW CHILLER 0 10TONS 0.75KW/TON,NREL ZNE READY 2017 WATERCOOLED  ROTARY SCREW CHILLER 0 SUPPLY INLET WATER NODE,NREL ZNE READY 2017 WATERCOOLED  ROTARY SCREW CHILLER 0 SUPPLY OUTLET WATER NODE,Chilled Water Nodes
 Component Set,9,BRANCH,CHILLED WATER LOOP SUPPLY BRANCH 2,PIPE:ADIABATIC,CHILLED WATER LOOP CHILLER BYPASS,CHILLED WATER LOOP CHILLER BYPASS INLET WATER NODE,CHILLED WATER LOOP CHILLER BYPASS OUTLET WATER NODE,Pipe Nodes
 Component Set,10,BRANCH,CHILLED WATER LOOP SUPPLY OUTLET BRANCH,PIPE:ADIABATIC,CHILLED WATER LOOP SUPPLY OUTLET,CHILLED WATER LOOP SUPPLY OUTLET INLET WATER NODE,CHILLED WATER LOOP SUPPLY OUTLET NODE,Pipe Nodes
 Component Set,11,BRANCH,CHILLED WATER LOOP DEMAND INLET BRANCH,PIPE:ADIABATIC,CHILLED WATER LOOP DEMAND INLET,CHILLED WATER LOOP DEMAND INLET NODE,CHILLED WATER LOOP SECONDARY PUMP INLET WATER NODE,Pipe Nodes
 Component Set,12,BRANCH,CHILLED WATER LOOP DEMAND INLET BRANCH,PUMP:VARIABLESPEED,CHILLED WATER LOOP SECONDARY PUMP,CHILLED WATER LOOP SECONDARY PUMP INLET WATER NODE,CHILLED WATER LOOP SECONDARY PUMP OUTLET WATER NODE,Water Nodes
 Component Set,13,BRANCH,CHILLED WATER LOOP DEMAND BRANCH 1,PIPE:ADIABATIC,CHILLED WATER LOOP COIL BYPASS,CHILLED WATER LOOP COIL BYPASS INLET WATER NODE,CHILLED WATER LOOP COIL BYPASS OUTLET WATER NODE,Pipe Nodes
 Component Set,14,BRANCH,CHILLED WATER LOOP DEMAND BRANCH 2,COIL:COOLING:WATER,5 ZONE DOAS CLG COIL,5 ZONE DOAS CLG COIL INLET WATER NODE,5 ZONE DOAS CLG COIL OUTLET WATER NODE,Water Nodes
 Component Set,15,BRANCH,CHILLED WATER LOOP DEMAND BRANCH 3,COIL:COOLING:WATER,PERIMETER_ZN_1 ZN FCU COOLING COIL,PERIMETER_ZN_1 ZN FCU COOLING COIL INLET WATER NODE,PERIMETER_ZN_1 ZN FCU COOLING COIL OUTLET WATER NODE,Water Nodes
 Component Set,16,BRANCH,CHILLED WATER LOOP DEMAND BRANCH 4,COIL:COOLING:WATER,CORE_ZN ZN FCU COOLING COIL,CORE_ZN ZN FCU COOLING COIL INLET WATER NODE,CORE_ZN ZN FCU COOLING COIL OUTLET WATER NODE,Water Nodes
 Component Set,17,BRANCH,CHILLED WATER LOOP DEMAND BRANCH 5,COIL:COOLING:WATER,PERIMETER_ZN_4 ZN FCU COOLING COIL,PERIMETER_ZN_4 ZN FCU COOLING COIL INLET WATER NODE,PERIMETER_ZN_4 ZN FCU COOLING COIL OUTLET WATER NODE,Water Nodes
 Component Set,18,BRANCH,CHILLED WATER LOOP DEMAND BRANCH 6,COIL:COOLING:WATER,PERIMETER_ZN_2 ZN FCU COOLING COIL,PERIMETER_ZN_2 ZN FCU COOLING COIL INLET WATER NODE,PERIMETER_ZN_2 ZN FCU COOLING COIL OUTLET WATER NODE,Water Nodes
 Component Set,19,BRANCH,CHILLED WATER LOOP DEMAND BRANCH 7,COIL:COOLING:WATER,PERIMETER_ZN_3 ZN FCU COOLING COIL,PERIMETER_ZN_3 ZN FCU COOLING COIL INLET WATER NODE,PERIMETER_ZN_3 ZN FCU COOLING COIL OUTLET WATER NODE,Water Nodes
 Component Set,20,BRANCH,CHILLED WATER LOOP DEMAND BYPASS BRANCH,PIPE:ADIABATIC,CHILLED WATER LOOP DEMAND BYPASS PIPE,CHILLED WATER LOOP DEMAND BYPASS PIPE INLET NODE,CHILLED WATER LOOP DEMAND BYPASS PIPE OUTLET NODE,Pipe Nodes
 Component Set,21,BRANCH,CHILLED WATER LOOP DEMAND OUTLET BRANCH,PIPE:ADIABATIC,CHILLED WATER LOOP DEMAND OUTLET,CHILLED WATER LOOP DEMAND OUTLET INLET WATER NODE,CHILLED WATER LOOP DEMAND OUTLET NODE,Pipe Nodes
 Component Set,22,BRANCH,CONDENSER WATER LOOP SUPPLY INLET BRANCH,PUMP:CONSTANTSPEED,CONDENSER WATER LOOP CONSTANT PUMP,CONDENSER WATER LOOP SUPPLY INLET NODE,CONDENSER WATER LOOP CONSTANT PUMP OUTLET WATER NODE,Water Nodes
 Component Set,23,BRANCH,CONDENSER WATER LOOP SUPPLY BRANCH 1,COOLINGTOWER:VARIABLESPEED,PROPELLER OR AXIAL VARIABLE SPEED FAN OPEN COOLING TOWER 40.2 GPM/HP,PROPELLER OR AXIAL VARIABLE SPEED FAN OPEN COOLING TOWER INLET WATER NODE,PROPELLER OR AXIAL VARIABLE SPEED FAN OPEN COOLING TOWER OUTLET WATER NODE,Chilled Water Nodes
 Component Set,24,BRANCH,CONDENSER WATER LOOP SUPPLY BRANCH 2,PIPE:ADIABATIC,CONDENSER WATER LOOP COOLING TOWER BYPASS,CONDENSER WATER LOOP COOLING TOWER BYPASS INLET WATER NODE,CONDENSER WATER LOOP COOLING TOWER BYPASS OUTLET WATER NODE,Pipe Nodes
 Component Set,25,BRANCH,CONDENSER WATER LOOP SUPPLY OUTLET BRANCH,PIPE:ADIABATIC,CONDENSER WATER LOOP SUPPLY OUTLET,CONDENSER WATER LOOP SUPPLY OUTLET INLET WATER NODE,CONDENSER WATER LOOP SUPPLY OUTLET NODE,Pipe Nodes
 Component Set,26,BRANCH,CONDENSER WATER LOOP DEMAND INLET BRANCH,PIPE:ADIABATIC,CONDENSER WATER LOOP DEMAND INLET,CONDENSER WATER LOOP DEMAND INLET NODE,CONDENSER WATER LOOP DEMAND INLET OUTLET WATER NODE,Pipe Nodes
 Component Set,27,BRANCH,CONDENSER WATER LOOP DEMAND BRANCH 1,PIPE:ADIABATIC,CONDENSER WATER LOOP CHILLER BYPASS,CONDENSER WATER LOOP CHILLER BYPASS INLET WATER NODE,CONDENSER WATER LOOP CHILLER BYPASS OUTLET WATER NODE,Pipe Nodes
 Component Set,28,BRANCH,CONDENSER WATER LOOP DEMAND BRANCH 2,CHILLER:ELECTRIC:EIR,NREL ZNE READY 2017 WATERCOOLED  ROTARY SCREW CHILLER 0 10TONS 0.75KW/TON,NREL ZNE READY 2017 WATERCOOLED  ROTARY SCREW CHILLER 0 DEMAND INLET WATER NODE,NREL ZNE READY 2017 WATERCOOLED  ROTARY SCREW CHILLER 0 DEMAND OUTLET WATER NODE,Condenser Water Nodes
 Component Set,29,BRANCH,CONDENSER WATER LOOP DEMAND BRANCH 3,HEATEXCHANGER:FLUIDTOFLUID,INTEGRATED WATERSIDE ECONOMIZER HEAT EXCHANGER,NODE 2,NODE 3,Loop Demand Side Plant Nodes
 Component Set,30,BRANCH,CONDENSER WATER LOOP DEMAND BYPASS BRANCH,PIPE:ADIABATIC,CONDENSER WATER LOOP DEMAND BYPASS PIPE,CONDENSER WATER LOOP DEMAND BYPASS PIPE INLET NODE,CONDENSER WATER LOOP DEMAND BYPASS PIPE OUTLET NODE,Pipe Nodes
 Component Set,31,BRANCH,CONDENSER WATER LOOP DEMAND OUTLET BRANCH,PIPE:ADIABATIC,CONDENSER WATER LOOP DEMAND OUTLET,CONDENSER WATER LOOP DEMAND OUTLET INLET WATER NODE,CONDENSER WATER LOOP DEMAND OUTLET NODE,Pipe Nodes
 Component Set,32,BRANCH,HOT WATER LOOP SUPPLY INLET BRANCH,PUMP:VARIABLESPEED,HOT WATER LOOP PUMP,HOT WATER LOOP SUPPLY INLET NODE,HOT WATER LOOP PUMP OUTLET WATER NODE,Water Nodes
 Component Set,33,BRANCH,HOT WATER LOOP SUPPLY BRANCH 1,BOILER:HOTWATER,BOILER 48KBTU/HR 0.94 COMBUSTION EFF,BOILER INLET WATER NODE,BOILER OUTLET WATER NODE,Hot Water Nodes
 Component Set,34,BRANCH,HOT WATER LOOP SUPPLY BRANCH 2,PIPE:ADIABATIC,HOT WATER LOOP SUPPLY EQUIPMENT BYPASS,HOT WATER LOOP SUPPLY EQUIPMENT BYPASS INLET WATER NODE,HOT WATER LOOP SUPPLY EQUIPMENT BYPASS OUTLET WATER NODE,Pipe Nodes
 Component Set,35,BRANCH,HOT WATER LOOP SUPPLY OUTLET BRANCH,PIPE:ADIABATIC,HOT WATER LOOP SUPPLY OUTLET,HOT WATER LOOP SUPPLY OUTLET INLET WATER NODE,HOT WATER LOOP SUPPLY OUTLET NODE,Pipe Nodes
 Component Set,36,BRANCH,HOT WATER LOOP DEMAND INLET BRANCH,PIPE:ADIABATIC,HOT WATER LOOP DEMAND INLET,HOT WATER LOOP DEMAND INLET NODE,HOT WATER LOOP DEMAND INLET OUTLET WATER NODE,Pipe Nodes
 Component Set,37,BRANCH,HOT WATER LOOP DEMAND BRANCH 1,PIPE:ADIABATIC,HOT WATER LOOP COIL BYPASS,HOT WATER LOOP COIL BYPASS INLET WATER NODE,HOT WATER LOOP COIL BYPASS OUTLET WATER NODE,Pipe Nodes
 Component Set,38,BRANCH,HOT WATER LOOP DEMAND BRANCH 2,COIL:HEATING:WATER,5 ZONE DOAS HTG COIL,5 ZONE DOAS HTG COIL INLET WATER NODE,5 ZONE DOAS HTG COIL OUTLET WATER NODE,Water Nodes
 Component Set,39,BRANCH,HOT WATER LOOP DEMAND BRANCH 3,COIL:HEATING:WATER,PERIMETER_ZN_1 ZN FCU HEATING COIL,PERIMETER_ZN_1 ZN FCU HEATING COIL INLET WATER NODE,PERIMETER_ZN_1 ZN FCU HEATING COIL OUTLET WATER NODE,Water Nodes
 Component Set,40,BRANCH,HOT WATER LOOP DEMAND BRANCH 4,COIL:HEATING:WATER,CORE_ZN ZN FCU HEATING COIL,CORE_ZN ZN FCU HEATING COIL INLET WATER NODE,CORE_ZN ZN FCU HEATING COIL OUTLET WATER NODE,Water Nodes
 Component Set,41,BRANCH,HOT WATER LOOP DEMAND BRANCH 5,COIL:HEATING:WATER,PERIMETER_ZN_4 ZN FCU HEATING COIL,PERIMETER_ZN_4 ZN FCU HEATING COIL INLET WATER NODE,PERIMETER_ZN_4 ZN FCU HEATING COIL OUTLET WATER NODE,Water Nodes
 Component Set,42,BRANCH,HOT WATER LOOP DEMAND BRANCH 6,COIL:HEATING:WATER,PERIMETER_ZN_2 ZN FCU HEATING COIL,PERIMETER_ZN_2 ZN FCU HEATING COIL INLET WATER NODE,PERIMETER_ZN_2 ZN FCU HEATING COIL OUTLET WATER NODE,Water Nodes
 Component Set,43,BRANCH,HOT WATER LOOP DEMAND BRANCH 7,COIL:HEATING:WATER,PERIMETER_ZN_3 ZN FCU HEATING COIL,PERIMETER_ZN_3 ZN FCU HEATING COIL INLET WATER NODE,PERIMETER_ZN_3 ZN FCU HEATING COIL OUTLET WATER NODE,Water Nodes
 Component Set,44,BRANCH,HOT WATER LOOP DEMAND BYPASS BRANCH,PIPE:ADIABATIC,HOT WATER LOOP DEMAND BYPASS PIPE,HOT WATER LOOP DEMAND BYPASS PIPE INLET NODE,HOT WATER LOOP DEMAND BYPASS PIPE OUTLET NODE,Pipe Nodes
 Component Set,45,BRANCH,HOT WATER LOOP DEMAND OUTLET BRANCH,PIPE:ADIABATIC,HOT WATER LOOP DEMAND OUTLET,HOT WATER LOOP DEMAND OUTLET INLET WATER NODE,HOT WATER LOOP DEMAND OUTLET NODE,Pipe Nodes
 Component Set,46,BRANCH,MAIN SERVICE WATER LOOP SUPPLY INLET BRANCH,PUMP:VARIABLESPEED,MAIN SERVICE WATER LOOP WATER MAINS PRESSURE DRIVEN,MAIN SERVICE WATER LOOP SUPPLY INLET NODE,MAIN SERVICE WATER LOOP WATER MAINS PRESSURE DRIVEN OUTLET WATER NODE,Water Nodes
 Component Set,47,BRANCH,MAIN SERVICE WATER LOOP SUPPLY BRANCH 1,WATERHEATER:MIXED,40GAL ELECTRICITY WATER HEATER - 40KBTU/HR 1.0 THERM EFF 1.0 THERM EFF,40GAL ELECTRICITY WATER HEATER - 40KBTU/HR 1.0 THERM EFF SUPPLY INLET WATER NODE,40GAL ELECTRICITY WATER HEATER - 40KBTU/HR 1.0 THERM EFF SUPPLY OUTLET WATER NODE,Use Side Water Nodes
 Component Set,48,BRANCH,MAIN SERVICE WATER LOOP SUPPLY BRANCH 2,PIPE:ADIABATIC,PIPE ADIABATIC 1,PIPE ADIABATIC 1 INLET WATER NODE,PIPE ADIABATIC 1 OUTLET WATER NODE,Pipe Nodes
 Component Set,49,BRANCH,MAIN SERVICE WATER LOOP SUPPLY OUTLET BRANCH,PIPE:ADIABATIC,PIPE ADIABATIC 3,PIPE ADIABATIC 3 INLET WATER NODE,MAIN SERVICE WATER LOOP SUPPLY OUTLET NODE,Pipe Nodes
 Component Set,50,BRANCH,MAIN SERVICE WATER LOOP DEMAND INLET BRANCH,PIPE:ADIABATIC,MAIN SERVICE WATER LOOP DEMAND INLET PIPE,MAIN SERVICE WATER LOOP DEMAND INLET NODE,MAIN SERVICE WATER LOOP DEMAND INLET PIPE NODE,Pipe Nodes
 Component Set,51,BRANCH,MAIN SERVICE WATER LOOP DEMAND BRANCH 1,PIPE:ADIABATIC,PIPE ADIABATIC 2,PIPE ADIABATIC 2 INLET WATER NODE,PIPE ADIABATIC 2 OUTLET WATER NODE,Pipe Nodes
 Component Set,52,BRANCH,MAIN SERVICE WATER LOOP DEMAND BRANCH 2,WATERUSE:CONNECTIONS,MAIN WUC 0.06GPM 140F,MAIN WUC 0.06GPM 140F INLET WATER NODE,MAIN WUC 0.06GPM 140F OUTLET WATER NODE,DHW Nodes
 Component Set,53,BRANCH,MAIN SERVICE WATER LOOP DEMAND BYPASS BRANCH,PIPE:ADIABATIC,MAIN SERVICE WATER LOOP DEMAND BYPASS PIPE,MAIN SERVICE WATER LOOP DEMAND BYPASS PIPE INLET NODE,MAIN SERVICE WATER LOOP DEMAND BYPASS PIPE OUTLET NODE,Pipe Nodes
 Component Set,54,BRANCH,MAIN SERVICE WATER LOOP DEMAND OUTLET BRANCH,PIPE:ADIABATIC,PIPE ADIABATIC 4,PIPE ADIABATIC 4 INLET WATER NODE,MAIN SERVICE WATER LOOP DEMAND OUTLET NODE,Pipe Nodes
 Component Set,55,ZONEHVAC:AIRDISTRIBUTIONUNIT,ADU CORE_ZN ZN AIR TERMINAL,AIRTERMINAL:SINGLEDUCT:VAV:NOREHEAT,CORE_ZN ZN AIR TERMINAL,CORE_ZN ZN AIR TERMINAL INLET AIR NODE,CORE_ZN ZN AIR TERMINAL OUTLET AIR NODE,Air Nodes
 Component Set,56,ZONEHVAC:AIRDISTRIBUTIONUNIT,ADU PERIMETER_ZN_1 ZN AIR TERMINAL,AIRTERMINAL:SINGLEDUCT:VAV:NOREHEAT,PERIMETER_ZN_1 ZN AIR TERMINAL,PERIMETER_ZN_1 ZN AIR TERMINAL INLET AIR NODE,PERIMETER_ZN_1 ZN AIR TERMINAL OUTLET AIR NODE,Air Nodes
 Component Set,57,ZONEHVAC:AIRDISTRIBUTIONUNIT,ADU PERIMETER_ZN_2 ZN AIR TERMINAL,AIRTERMINAL:SINGLEDUCT:VAV:NOREHEAT,PERIMETER_ZN_2 ZN AIR TERMINAL,PERIMETER_ZN_2 ZN AIR TERMINAL INLET AIR NODE,PERIMETER_ZN_2 ZN AIR TERMINAL OUTLET AIR NODE,Air Nodes
 Component Set,58,ZONEHVAC:AIRDISTRIBUTIONUNIT,ADU PERIMETER_ZN_3 ZN AIR TERMINAL,AIRTERMINAL:SINGLEDUCT:VAV:NOREHEAT,PERIMETER_ZN_3 ZN AIR TERMINAL,PERIMETER_ZN_3 ZN AIR TERMINAL INLET AIR NODE,PERIMETER_ZN_3 ZN AIR TERMINAL OUTLET AIR NODE,Air Nodes
 Component Set,59,ZONEHVAC:AIRDISTRIBUTIONUNIT,ADU PERIMETER_ZN_4 ZN AIR TERMINAL,AIRTERMINAL:SINGLEDUCT:VAV:NOREHEAT,PERIMETER_ZN_4 ZN AIR TERMINAL,PERIMETER_ZN_4 ZN AIR TERMINAL INLET AIR NODE,PERIMETER_ZN_4 ZN AIR TERMINAL OUTLET AIR NODE,Air Nodes
 Component Set,60,ZONEHVAC:FOURPIPEFANCOIL,CORE_ZN ZN FCU,OUTDOORAIR:MIXER,CORE_ZN ZN FCU OA MIXER,CORE_ZN ZN FCU OA NODE,CORE_ZN ZN FCU MIXED AIR NODE,Air Nodes
 Component Set,61,ZONEHVAC:FOURPIPEFANCOIL,PERIMETER_ZN_1 ZN FCU,OUTDOORAIR:MIXER,PERIMETER_ZN_1 ZN FCU OA MIXER,PERIMETER_ZN_1 ZN FCU OA NODE,PERIMETER_ZN_1 ZN FCU MIXED AIR NODE,Air Nodes
 Component Set,62,ZONEHVAC:FOURPIPEFANCOIL,PERIMETER_ZN_2 ZN FCU,OUTDOORAIR:MIXER,PERIMETER_ZN_2 ZN FCU OA MIXER,PERIMETER_ZN_2 ZN FCU OA NODE,PERIMETER_ZN_2 ZN FCU MIXED AIR NODE,Air Nodes
 Component Set,63,ZONEHVAC:FOURPIPEFANCOIL,PERIMETER_ZN_3 ZN FCU,OUTDOORAIR:MIXER,PERIMETER_ZN_3 ZN FCU OA MIXER,PERIMETER_ZN_3 ZN FCU OA NODE,PERIMETER_ZN_3 ZN FCU MIXED AIR NODE,Air Nodes
 Component Set,64,ZONEHVAC:FOURPIPEFANCOIL,PERIMETER_ZN_4 ZN FCU,OUTDOORAIR:MIXER,PERIMETER_ZN_4 ZN FCU OA MIXER,PERIMETER_ZN_4 ZN FCU OA NODE,PERIMETER_ZN_4 ZN FCU MIXED AIR NODE,Air Nodes
 Component Set,65,AIRLOOPHVAC:OUTDOORAIRSYSTEM,5 ZONE DOAS OA SYSTEM,OUTDOORAIR:MIXER,5 ZONE DOAS OA SYSTEM OUTDOOR AIR MIXER,5 ZONE DOAS OUTDOOR AIR NODE,5 ZONE DOAS MIXED AIR NODE,Air Nodes
 Component Set,66,ZONEHVAC:FOURPIPEFANCOIL,CORE_ZN ZN FCU,COIL:HEATING:WATER,CORE_ZN ZN FCU HEATING COIL,CORE_ZN ZN FCU COOLING COIL OUTLET NODE,CORE_ZN ZN FCU OUTLET AIR NODE,Air Nodes
 Component Set,67,ZONEHVAC:FOURPIPEFANCOIL,PERIMETER_ZN_1 ZN FCU,COIL:HEATING:WATER,PERIMETER_ZN_1 ZN FCU HEATING COIL,PERIMETER_ZN_1 ZN FCU COOLING COIL OUTLET NODE,PERIMETER_ZN_1 ZN FCU OUTLET AIR NODE,Air Nodes
 Component Set,68,ZONEHVAC:FOURPIPEFANCOIL,PERIMETER_ZN_2 ZN FCU,COIL:HEATING:WATER,PERIMETER_ZN_2 ZN FCU HEATING COIL,PERIMETER_ZN_2 ZN FCU COOLING COIL OUTLET NODE,PERIMETER_ZN_2 ZN FCU OUTLET AIR NODE,Air Nodes
 Component Set,69,ZONEHVAC:FOURPIPEFANCOIL,PERIMETER_ZN_3 ZN FCU,COIL:HEATING:WATER,PERIMETER_ZN_3 ZN FCU HEATING COIL,PERIMETER_ZN_3 ZN FCU COOLING COIL OUTLET NODE,PERIMETER_ZN_3 ZN FCU OUTLET AIR NODE,Air Nodes
 Component Set,70,ZONEHVAC:FOURPIPEFANCOIL,PERIMETER_ZN_4 ZN FCU,COIL:HEATING:WATER,PERIMETER_ZN_4 ZN FCU HEATING COIL,PERIMETER_ZN_4 ZN FCU COOLING COIL OUTLET NODE,PERIMETER_ZN_4 ZN FCU OUTLET AIR NODE,Air Nodes
 Component Set,71,ZONEHVAC:FOURPIPEFANCOIL,CORE_ZN ZN FCU,COIL:COOLING:WATER,CORE_ZN ZN FCU COOLING COIL,CORE_ZN ZN FCU FAN OUTLET NODE,CORE_ZN ZN FCU COOLING COIL OUTLET NODE,Air Nodes
 Component Set,72,ZONEHVAC:FOURPIPEFANCOIL,PERIMETER_ZN_1 ZN FCU,COIL:COOLING:WATER,PERIMETER_ZN_1 ZN FCU COOLING COIL,PERIMETER_ZN_1 ZN FCU FAN OUTLET NODE,PERIMETER_ZN_1 ZN FCU COOLING COIL OUTLET NODE,Air Nodes
 Component Set,73,ZONEHVAC:FOURPIPEFANCOIL,PERIMETER_ZN_2 ZN FCU,COIL:COOLING:WATER,PERIMETER_ZN_2 ZN FCU COOLING COIL,PERIMETER_ZN_2 ZN FCU FAN OUTLET NODE,PERIMETER_ZN_2 ZN FCU COOLING COIL OUTLET NODE,Air Nodes
 Component Set,74,ZONEHVAC:FOURPIPEFANCOIL,PERIMETER_ZN_3 ZN FCU,COIL:COOLING:WATER,PERIMETER_ZN_3 ZN FCU COOLING COIL,PERIMETER_ZN_3 ZN FCU FAN OUTLET NODE,PERIMETER_ZN_3 ZN FCU COOLING COIL OUTLET NODE,Air Nodes
 Component Set,75,ZONEHVAC:FOURPIPEFANCOIL,PERIMETER_ZN_4 ZN FCU,COIL:COOLING:WATER,PERIMETER_ZN_4 ZN FCU COOLING COIL,PERIMETER_ZN_4 ZN FCU FAN OUTLET NODE,PERIMETER_ZN_4 ZN FCU COOLING COIL OUTLET NODE,Air Nodes
 Component Set,76,ZONEHVAC:FOURPIPEFANCOIL,CORE_ZN ZN FCU,FAN:ONOFF,CORE_ZN ZN FAN COIL FAN,CORE_ZN ZN FCU MIXED AIR NODE,CORE_ZN ZN FCU FAN OUTLET NODE,Air Nodes
 Component Set,77,ZONEHVAC:FOURPIPEFANCOIL,PERIMETER_ZN_1 ZN FCU,FAN:ONOFF,PERIMETER_ZN_1 ZN FAN COIL FAN,PERIMETER_ZN_1 ZN FCU MIXED AIR NODE,PERIMETER_ZN_1 ZN FCU FAN OUTLET NODE,Air Nodes
 Component Set,78,ZONEHVAC:FOURPIPEFANCOIL,PERIMETER_ZN_2 ZN FCU,FAN:ONOFF,PERIMETER_ZN_2 ZN FAN COIL FAN,PERIMETER_ZN_2 ZN FCU MIXED AIR NODE,PERIMETER_ZN_2 ZN FCU FAN OUTLET NODE,Air Nodes
 Component Set,79,ZONEHVAC:FOURPIPEFANCOIL,PERIMETER_ZN_3 ZN FCU,FAN:ONOFF,PERIMETER_ZN_3 ZN FAN COIL FAN,PERIMETER_ZN_3 ZN FCU MIXED AIR NODE,PERIMETER_ZN_3 ZN FCU FAN OUTLET NODE,Air Nodes
 Component Set,80,ZONEHVAC:FOURPIPEFANCOIL,PERIMETER_ZN_4 ZN FCU,FAN:ONOFF,PERIMETER_ZN_4 ZN FAN COIL FAN,PERIMETER_ZN_4 ZN FCU MIXED AIR NODE,PERIMETER_ZN_4 ZN FCU FAN OUTLET NODE,Air Nodes
! ===============================================================
! <# Plant Loops>,<Number of Plant Loops>
 #Plant Loops,4
! <Plant Loop>,<Plant Loop Name>,<Loop Type>,<Inlet Node Name>,<Outlet Node Name>,<Branch List>,<Connector List>
! <Plant Loop Connector>,<Connector Type>,<Connector Name>,<Loop Name>,<Loop Type>,<Number of Inlets/Outlets>
! <Plant Loop Connector Branches>,<Connector Node Count>,<Connector Type>,<Connector Name>,<Inlet Branch>,<Outlet Branch>,<Loop Name>,<Loop Type>
! <Plant Loop Connector Nodes>,<Connector Node Count>,<Connector Type>,<Connector Name>,<Inlet Node>,<Outlet Node>,<Loop Name>,<Loop Type>
! <Plant Loop Supply Connection>,<Plant Loop Name>,<Supply Side Outlet Node Name>,<Demand Side Inlet Node Name>
! <Plant Loop Return Connection>,<Plant Loop Name>,<Demand Side Outlet Node Name>,<Supply Side Inlet Node Name>
 Plant Loop,CHILLED WATER LOOP,Demand,CHILLED WATER LOOP DEMAND INLET NODE,CHILLED WATER LOOP DEMAND OUTLET NODE,CHILLED WATER LOOP DEMAND BRANCHES,CHILLED WATER LOOP DEMAND CONNECTOR LIST
   Plant Loop Connector,Splitter,CHILLED WATER LOOP DEMAND SPLITTER,CHILLED WATER LOOP,Demand,8
     Plant Loop Connector Branches,1,Splitter,CHILLED WATER LOOP DEMAND SPLITTER,CHILLED WATER LOOP DEMAND INLET BRANCH,CHILLED WATER LOOP DEMAND BRANCH 1,CHILLED WATER LOOP,Demand
     Plant Loop Connector Nodes,   1,Splitter,CHILLED WATER LOOP DEMAND SPLITTER,CHILLED WATER LOOP SECONDARY PUMP OUTLET WATER NODE,CHILLED WATER LOOP COIL BYPASS INLET WATER NODE,CHILLED WATER LOOP,Demand
     Plant Loop Connector Branches,2,Splitter,CHILLED WATER LOOP DEMAND SPLITTER,CHILLED WATER LOOP DEMAND INLET BRANCH,CHILLED WATER LOOP DEMAND BRANCH 2,CHILLED WATER LOOP,Demand
     Plant Loop Connector Nodes,   2,Splitter,CHILLED WATER LOOP DEMAND SPLITTER,CHILLED WATER LOOP SECONDARY PUMP OUTLET WATER NODE,5 ZONE DOAS CLG COIL INLET WATER NODE,CHILLED WATER LOOP,Demand
     Plant Loop Connector Branches,3,Splitter,CHILLED WATER LOOP DEMAND SPLITTER,CHILLED WATER LOOP DEMAND INLET BRANCH,CHILLED WATER LOOP DEMAND BRANCH 3,CHILLED WATER LOOP,Demand
     Plant Loop Connector Nodes,   3,Splitter,CHILLED WATER LOOP DEMAND SPLITTER,CHILLED WATER LOOP SECONDARY PUMP OUTLET WATER NODE,PERIMETER_ZN_1 ZN FCU COOLING COIL INLET WATER NODE,CHILLED WATER LOOP,Demand
     Plant Loop Connector Branches,4,Splitter,CHILLED WATER LOOP DEMAND SPLITTER,CHILLED WATER LOOP DEMAND INLET BRANCH,CHILLED WATER LOOP DEMAND BRANCH 4,CHILLED WATER LOOP,Demand
     Plant Loop Connector Nodes,   4,Splitter,CHILLED WATER LOOP DEMAND SPLITTER,CHILLED WATER LOOP SECONDARY PUMP OUTLET WATER NODE,CORE_ZN ZN FCU COOLING COIL INLET WATER NODE,CHILLED WATER LOOP,Demand
     Plant Loop Connector Branches,5,Splitter,CHILLED WATER LOOP DEMAND SPLITTER,CHILLED WATER LOOP DEMAND INLET BRANCH,CHILLED WATER LOOP DEMAND BRANCH 5,CHILLED WATER LOOP,Demand
     Plant Loop Connector Nodes,   5,Splitter,CHILLED WATER LOOP DEMAND SPLITTER,CHILLED WATER LOOP SECONDARY PUMP OUTLET WATER NODE,PERIMETER_ZN_4 ZN FCU COOLING COIL INLET WATER NODE,CHILLED WATER LOOP,Demand
     Plant Loop Connector Branches,6,Splitter,CHILLED WATER LOOP DEMAND SPLITTER,CHILLED WATER LOOP DEMAND INLET BRANCH,CHILLED WATER LOOP DEMAND BRANCH 6,CHILLED WATER LOOP,Demand
     Plant Loop Connector Nodes,   6,Splitter,CHILLED WATER LOOP DEMAND SPLITTER,CHILLED WATER LOOP SECONDARY PUMP OUTLET WATER NODE,PERIMETER_ZN_2 ZN FCU COOLING COIL INLET WATER NODE,CHILLED WATER LOOP,Demand
     Plant Loop Connector Branches,7,Splitter,CHILLED WATER LOOP DEMAND SPLITTER,CHILLED WATER LOOP DEMAND INLET BRANCH,CHILLED WATER LOOP DEMAND BRANCH 7,CHILLED WATER LOOP,Demand
     Plant Loop Connector Nodes,   7,Splitter,CHILLED WATER LOOP DEMAND SPLITTER,CHILLED WATER LOOP SECONDARY PUMP OUTLET WATER NODE,PERIMETER_ZN_3 ZN FCU COOLING COIL INLET WATER NODE,CHILLED WATER LOOP,Demand
     Plant Loop Connector Branches,8,Splitter,CHILLED WATER LOOP DEMAND SPLITTER,CHILLED WATER LOOP DEMAND INLET BRANCH,CHILLED WATER LOOP DEMAND BYPASS BRANCH,CHILLED WATER LOOP,Demand
     Plant Loop Connector Nodes,   8,Splitter,CHILLED WATER LOOP DEMAND SPLITTER,CHILLED WATER LOOP SECONDARY PUMP OUTLET WATER NODE,CHILLED WATER LOOP DEMAND BYPASS PIPE INLET NODE,CHILLED WATER LOOP,Demand
   Plant Loop Connector,Mixer,CHILLED WATER LOOP DEMAND MIXER,CHILLED WATER LOOP,Demand,8
     Plant Loop Connector Branches,1,Mixer,CHILLED WATER LOOP DEMAND MIXER,CHILLED WATER LOOP DEMAND BRANCH 1,CHILLED WATER LOOP DEMAND OUTLET BRANCH,CHILLED WATER LOOP,Demand
     Plant Loop Connector Nodes,   1,Mixer,CHILLED WATER LOOP DEMAND MIXER,CHILLED WATER LOOP COIL BYPASS OUTLET WATER NODE,CHILLED WATER LOOP DEMAND OUTLET INLET WATER NODE,CHILLED WATER LOOP,Demand
     Plant Loop Connector Branches,2,Mixer,CHILLED WATER LOOP DEMAND MIXER,CHILLED WATER LOOP DEMAND BRANCH 2,CHILLED WATER LOOP DEMAND OUTLET BRANCH,CHILLED WATER LOOP,Demand
     Plant Loop Connector Nodes,   2,Mixer,CHILLED WATER LOOP DEMAND MIXER,5 ZONE DOAS CLG COIL OUTLET WATER NODE,CHILLED WATER LOOP DEMAND OUTLET INLET WATER NODE,CHILLED WATER LOOP,Demand
     Plant Loop Connector Branches,3,Mixer,CHILLED WATER LOOP DEMAND MIXER,CHILLED WATER LOOP DEMAND BRANCH 3,CHILLED WATER LOOP DEMAND OUTLET BRANCH,CHILLED WATER LOOP,Demand
     Plant Loop Connector Nodes,   3,Mixer,CHILLED WATER LOOP DEMAND MIXER,PERIMETER_ZN_1 ZN FCU COOLING COIL OUTLET WATER NODE,CHILLED WATER LOOP DEMAND OUTLET INLET WATER NODE,CHILLED WATER LOOP,Demand
     Plant Loop Connector Branches,4,Mixer,CHILLED WATER LOOP DEMAND MIXER,CHILLED WATER LOOP DEMAND BRANCH 4,CHILLED WATER LOOP DEMAND OUTLET BRANCH,CHILLED WATER LOOP,Demand
     Plant Loop Connector Nodes,   4,Mixer,CHILLED WATER LOOP DEMAND MIXER,CORE_ZN ZN FCU COOLING COIL OUTLET WATER NODE,CHILLED WATER LOOP DEMAND OUTLET INLET WATER NODE,CHILLED WATER LOOP,Demand
     Plant Loop Connector Branches,5,Mixer,CHILLED WATER LOOP DEMAND MIXER,CHILLED WATER LOOP DEMAND BRANCH 5,CHILLED WATER LOOP DEMAND OUTLET BRANCH,CHILLED WATER LOOP,Demand
     Plant Loop Connector Nodes,   5,Mixer,CHILLED WATER LOOP DEMAND MIXER,PERIMETER_ZN_4 ZN FCU COOLING COIL OUTLET WATER NODE,CHILLED WATER LOOP DEMAND OUTLET INLET WATER NODE,CHILLED WATER LOOP,Demand
     Plant Loop Connector Branches,6,Mixer,CHILLED WATER LOOP DEMAND MIXER,CHILLED WATER LOOP DEMAND BRANCH 6,CHILLED WATER LOOP DEMAND OUTLET BRANCH,CHILLED WATER LOOP,Demand
     Plant Loop Connector Nodes,   6,Mixer,CHILLED WATER LOOP DEMAND MIXER,PERIMETER_ZN_2 ZN FCU COOLING COIL OUTLET WATER NODE,CHILLED WATER LOOP DEMAND OUTLET INLET WATER NODE,CHILLED WATER LOOP,Demand
     Plant Loop Connector Branches,7,Mixer,CHILLED WATER LOOP DEMAND MIXER,CHILLED WATER LOOP DEMAND BRANCH 7,CHILLED WATER LOOP DEMAND OUTLET BRANCH,CHILLED WATER LOOP,Demand
     Plant Loop Connector Nodes,   7,Mixer,CHILLED WATER LOOP DEMAND MIXER,PERIMETER_ZN_3 ZN FCU COOLING COIL OUTLET WATER NODE,CHILLED WATER LOOP DEMAND OUTLET INLET WATER NODE,CHILLED WATER LOOP,Demand
     Plant Loop Connector Branches,8,Mixer,CHILLED WATER LOOP DEMAND MIXER,CHILLED WATER LOOP DEMAND BYPASS BRANCH,CHILLED WATER LOOP DEMAND OUTLET BRANCH,CHILLED WATER LOOP,Demand
     Plant Loop Connector Nodes,   8,Mixer,CHILLED WATER LOOP DEMAND MIXER,CHILLED WATER LOOP DEMAND BYPASS PIPE OUTLET NODE,CHILLED WATER LOOP DEMAND OUTLET INLET WATER NODE,CHILLED WATER LOOP,Demand
 Plant Loop,CHILLED WATER LOOP,Supply,CHILLED WATER LOOP SUPPLY INLET NODE,CHILLED WATER LOOP SUPPLY OUTLET NODE,CHILLED WATER LOOP SUPPLY BRANCHES,CHILLED WATER LOOP SUPPLY CONNECTOR LIST
   Plant Loop Connector,Splitter,CHILLED WATER LOOP SUPPLY SPLITTER,CHILLED WATER LOOP,Supply,2
     Plant Loop Connector Branches,1,Splitter,CHILLED WATER LOOP SUPPLY SPLITTER,CHILLED WATER LOOP SUPPLY INLET BRANCH,CHILLED WATER LOOP SUPPLY BRANCH 1,CHILLED WATER LOOP,Supply
     Plant Loop Connector Nodes,   1,Splitter,CHILLED WATER LOOP SUPPLY SPLITTER,CHILLED WATER LOOP PRIMARY PUMP OUTLET WATER NODE,NREL ZNE READY 2017 WATERCOOLED  ROTARY SCREW CHILLER 0 SUPPLY INLET WATER NODE,CHILLED WATER LOOP,Supply
     Plant Loop Connector Branches,2,Splitter,CHILLED WATER LOOP SUPPLY SPLITTER,CHILLED WATER LOOP SUPPLY INLET BRANCH,CHILLED WATER LOOP SUPPLY BRANCH 2,CHILLED WATER LOOP,Supply
     Plant Loop Connector Nodes,   2,Splitter,CHILLED WATER LOOP SUPPLY SPLITTER,CHILLED WATER LOOP PRIMARY PUMP OUTLET WATER NODE,CHILLED WATER LOOP CHILLER BYPASS INLET WATER NODE,CHILLED WATER LOOP,Supply
   Plant Loop Connector,Mixer,CHILLED WATER LOOP SUPPLY MIXER,CHILLED WATER LOOP,Supply,2
     Plant Loop Connector Branches,1,Mixer,CHILLED WATER LOOP SUPPLY MIXER,CHILLED WATER LOOP SUPPLY BRANCH 1,CHILLED WATER LOOP SUPPLY OUTLET BRANCH,CHILLED WATER LOOP,Supply
     Plant Loop Connector Nodes,   1,Mixer,CHILLED WATER LOOP SUPPLY MIXER,NREL ZNE READY 2017 WATERCOOLED  ROTARY SCREW CHILLER 0 SUPPLY OUTLET WATER NODE,CHILLED WATER LOOP SUPPLY OUTLET INLET WATER NODE,CHILLED WATER LOOP,Supply
     Plant Loop Connector Branches,2,Mixer,CHILLED WATER LOOP SUPPLY MIXER,CHILLED WATER LOOP SUPPLY BRANCH 2,CHILLED WATER LOOP SUPPLY OUTLET BRANCH,CHILLED WATER LOOP,Supply
     Plant Loop Connector Nodes,   2,Mixer,CHILLED WATER LOOP SUPPLY MIXER,CHILLED WATER LOOP CHILLER BYPASS OUTLET WATER NODE,CHILLED WATER LOOP SUPPLY OUTLET INLET WATER NODE,CHILLED WATER LOOP,Supply
 Plant Loop Supply Connection,CHILLED WATER LOOP,CHILLED WATER LOOP SUPPLY OUTLET NODE,CHILLED WATER LOOP DEMAND INLET NODE
 Plant Loop Return Connection,CHILLED WATER LOOP,CHILLED WATER LOOP DEMAND OUTLET NODE,CHILLED WATER LOOP SUPPLY INLET NODE
 Plant Loop,CONDENSER WATER LOOP,Demand,CONDENSER WATER LOOP DEMAND INLET NODE,CONDENSER WATER LOOP DEMAND OUTLET NODE,CONDENSER WATER LOOP DEMAND BRANCHES,CONDENSER WATER LOOP DEMAND CONNECTOR LIST
   Plant Loop Connector,Splitter,CONDENSER WATER LOOP DEMAND SPLITTER,CONDENSER WATER LOOP,Demand,4
     Plant Loop Connector Branches,1,Splitter,CONDENSER WATER LOOP DEMAND SPLITTER,CONDENSER WATER LOOP DEMAND INLET BRANCH,CONDENSER WATER LOOP DEMAND BRANCH 1,CONDENSER WATER LOOP,Demand
     Plant Loop Connector Nodes,   1,Splitter,CONDENSER WATER LOOP DEMAND SPLITTER,CONDENSER WATER LOOP DEMAND INLET OUTLET WATER NODE,CONDENSER WATER LOOP CHILLER BYPASS INLET WATER NODE,CONDENSER WATER LOOP,Demand
     Plant Loop Connector Branches,2,Splitter,CONDENSER WATER LOOP DEMAND SPLITTER,CONDENSER WATER LOOP DEMAND INLET BRANCH,CONDENSER WATER LOOP DEMAND BRANCH 2,CONDENSER WATER LOOP,Demand
     Plant Loop Connector Nodes,   2,Splitter,CONDENSER WATER LOOP DEMAND SPLITTER,CONDENSER WATER LOOP DEMAND INLET OUTLET WATER NODE,NREL ZNE READY 2017 WATERCOOLED  ROTARY SCREW CHILLER 0 DEMAND INLET WATER NODE,CONDENSER WATER LOOP,Demand
     Plant Loop Connector Branches,3,Splitter,CONDENSER WATER LOOP DEMAND SPLITTER,CONDENSER WATER LOOP DEMAND INLET BRANCH,CONDENSER WATER LOOP DEMAND BRANCH 3,CONDENSER WATER LOOP,Demand
     Plant Loop Connector Nodes,   3,Splitter,CONDENSER WATER LOOP DEMAND SPLITTER,CONDENSER WATER LOOP DEMAND INLET OUTLET WATER NODE,NODE 2,CONDENSER WATER LOOP,Demand
     Plant Loop Connector Branches,4,Splitter,CONDENSER WATER LOOP DEMAND SPLITTER,CONDENSER WATER LOOP DEMAND INLET BRANCH,CONDENSER WATER LOOP DEMAND BYPASS BRANCH,CONDENSER WATER LOOP,Demand
     Plant Loop Connector Nodes,   4,Splitter,CONDENSER WATER LOOP DEMAND SPLITTER,CONDENSER WATER LOOP DEMAND INLET OUTLET WATER NODE,CONDENSER WATER LOOP DEMAND BYPASS PIPE INLET NODE,CONDENSER WATER LOOP,Demand
   Plant Loop Connector,Mixer,CONDENSER WATER LOOP DEMAND MIXER,CONDENSER WATER LOOP,Demand,4
     Plant Loop Connector Branches,1,Mixer,CONDENSER WATER LOOP DEMAND MIXER,CONDENSER WATER LOOP DEMAND BRANCH 1,CONDENSER WATER LOOP DEMAND OUTLET BRANCH,CONDENSER WATER LOOP,Demand
     Plant Loop Connector Nodes,   1,Mixer,CONDENSER WATER LOOP DEMAND MIXER,CONDENSER WATER LOOP CHILLER BYPASS OUTLET WATER NODE,CONDENSER WATER LOOP DEMAND OUTLET INLET WATER NODE,CONDENSER WATER LOOP,Demand
     Plant Loop Connector Branches,2,Mixer,CONDENSER WATER LOOP DEMAND MIXER,CONDENSER WATER LOOP DEMAND BRANCH 2,CONDENSER WATER LOOP DEMAND OUTLET BRANCH,CONDENSER WATER LOOP,Demand
     Plant Loop Connector Nodes,   2,Mixer,CONDENSER WATER LOOP DEMAND MIXER,NREL ZNE READY 2017 WATERCOOLED  ROTARY SCREW CHILLER 0 DEMAND OUTLET WATER NODE,CONDENSER WATER LOOP DEMAND OUTLET INLET WATER NODE,CONDENSER WATER LOOP,Demand
     Plant Loop Connector Branches,3,Mixer,CONDENSER WATER LOOP DEMAND MIXER,CONDENSER WATER LOOP DEMAND BRANCH 3,CONDENSER WATER LOOP DEMAND OUTLET BRANCH,CONDENSER WATER LOOP,Demand
     Plant Loop Connector Nodes,   3,Mixer,CONDENSER WATER LOOP DEMAND MIXER,NODE 3,CONDENSER WATER LOOP DEMAND OUTLET INLET WATER NODE,CONDENSER WATER LOOP,Demand
     Plant Loop Connector Branches,4,Mixer,CONDENSER WATER LOOP DEMAND MIXER,CONDENSER WATER LOOP DEMAND BYPASS BRANCH,CONDENSER WATER LOOP DEMAND OUTLET BRANCH,CONDENSER WATER LOOP,Demand
     Plant Loop Connector Nodes,   4,Mixer,CONDENSER WATER LOOP DEMAND MIXER,CONDENSER WATER LOOP DEMAND BYPASS PIPE OUTLET NODE,CONDENSER WATER LOOP DEMAND OUTLET INLET WATER NODE,CONDENSER WATER LOOP,Demand
 Plant Loop,CONDENSER WATER LOOP,Supply,CONDENSER WATER LOOP SUPPLY INLET NODE,CONDENSER WATER LOOP SUPPLY OUTLET NODE,CONDENSER WATER LOOP SUPPLY BRANCHES,CONDENSER WATER LOOP SUPPLY CONNECTOR LIST
   Plant Loop Connector,Splitter,CONDENSER WATER LOOP SUPPLY SPLITTER,CONDENSER WATER LOOP,Supply,2
     Plant Loop Connector Branches,1,Splitter,CONDENSER WATER LOOP SUPPLY SPLITTER,CONDENSER WATER LOOP SUPPLY INLET BRANCH,CONDENSER WATER LOOP SUPPLY BRANCH 1,CONDENSER WATER LOOP,Supply
     Plant Loop Connector Nodes,   1,Splitter,CONDENSER WATER LOOP SUPPLY SPLITTER,CONDENSER WATER LOOP CONSTANT PUMP OUTLET WATER NODE,PROPELLER OR AXIAL VARIABLE SPEED FAN OPEN COOLING TOWER INLET WATER NODE,CONDENSER WATER LOOP,Supply
     Plant Loop Connector Branches,2,Splitter,CONDENSER WATER LOOP SUPPLY SPLITTER,CONDENSER WATER LOOP SUPPLY INLET BRANCH,CONDENSER WATER LOOP SUPPLY BRANCH 2,CONDENSER WATER LOOP,Supply
     Plant Loop Connector Nodes,   2,Splitter,CONDENSER WATER LOOP SUPPLY SPLITTER,CONDENSER WATER LOOP CONSTANT PUMP OUTLET WATER NODE,CONDENSER WATER LOOP COOLING TOWER BYPASS INLET WATER NODE,CONDENSER WATER LOOP,Supply
   Plant Loop Connector,Mixer,CONDENSER WATER LOOP SUPPLY MIXER,CONDENSER WATER LOOP,Supply,2
     Plant Loop Connector Branches,1,Mixer,CONDENSER WATER LOOP SUPPLY MIXER,CONDENSER WATER LOOP SUPPLY BRANCH 1,CONDENSER WATER LOOP SUPPLY OUTLET BRANCH,CONDENSER WATER LOOP,Supply
     Plant Loop Connector Nodes,   1,Mixer,CONDENSER WATER LOOP SUPPLY MIXER,PROPELLER OR AXIAL VARIABLE SPEED FAN OPEN COOLING TOWER OUTLET WATER NODE,CONDENSER WATER LOOP SUPPLY OUTLET INLET WATER NODE,CONDENSER WATER LOOP,Supply
     Plant Loop Connector Branches,2,Mixer,CONDENSER WATER LOOP SUPPLY MIXER,CONDENSER WATER LOOP SUPPLY BRANCH 2,CONDENSER WATER LOOP SUPPLY OUTLET BRANCH,CONDENSER WATER LOOP,Supply
     Plant Loop Connector Nodes,   2,Mixer,CONDENSER WATER LOOP SUPPLY MIXER,CONDENSER WATER LOOP COOLING TOWER BYPASS OUTLET WATER NODE,CONDENSER WATER LOOP SUPPLY OUTLET INLET WATER NODE,CONDENSER WATER LOOP,Supply
 Plant Loop Supply Connection,CONDENSER WATER LOOP,CONDENSER WATER LOOP SUPPLY OUTLET NODE,CONDENSER WATER LOOP DEMAND INLET NODE
 Plant Loop Return Connection,CONDENSER WATER LOOP,CONDENSER WATER LOOP DEMAND OUTLET NODE,CONDENSER WATER LOOP SUPPLY INLET NODE
 Plant Loop,HOT WATER LOOP,Demand,HOT WATER LOOP DEMAND INLET NODE,HOT WATER LOOP DEMAND OUTLET NODE,HOT WATER LOOP DEMAND BRANCHES,HOT WATER LOOP DEMAND CONNECTOR LIST
   Plant Loop Connector,Splitter,HOT WATER LOOP DEMAND SPLITTER,HOT WATER LOOP,Demand,8
     Plant Loop Connector Branches,1,Splitter,HOT WATER LOOP DEMAND SPLITTER,HOT WATER LOOP DEMAND INLET BRANCH,HOT WATER LOOP DEMAND BRANCH 1,HOT WATER LOOP,Demand
     Plant Loop Connector Nodes,   1,Splitter,HOT WATER LOOP DEMAND SPLITTER,HOT WATER LOOP DEMAND INLET OUTLET WATER NODE,HOT WATER LOOP COIL BYPASS INLET WATER NODE,HOT WATER LOOP,Demand
     Plant Loop Connector Branches,2,Splitter,HOT WATER LOOP DEMAND SPLITTER,HOT WATER LOOP DEMAND INLET BRANCH,HOT WATER LOOP DEMAND BRANCH 2,HOT WATER LOOP,Demand
     Plant Loop Connector Nodes,   2,Splitter,HOT WATER LOOP DEMAND SPLITTER,HOT WATER LOOP DEMAND INLET OUTLET WATER NODE,5 ZONE DOAS HTG COIL INLET WATER NODE,HOT WATER LOOP,Demand
     Plant Loop Connector Branches,3,Splitter,HOT WATER LOOP DEMAND SPLITTER,HOT WATER LOOP DEMAND INLET BRANCH,HOT WATER LOOP DEMAND BRANCH 3,HOT WATER LOOP,Demand
     Plant Loop Connector Nodes,   3,Splitter,HOT WATER LOOP DEMAND SPLITTER,HOT WATER LOOP DEMAND INLET OUTLET WATER NODE,PERIMETER_ZN_1 ZN FCU HEATING COIL INLET WATER NODE,HOT WATER LOOP,Demand
     Plant Loop Connector Branches,4,Splitter,HOT WATER LOOP DEMAND SPLITTER,HOT WATER LOOP DEMAND INLET BRANCH,HOT WATER LOOP DEMAND BRANCH 4,HOT WATER LOOP,Demand
     Plant Loop Connector Nodes,   4,Splitter,HOT WATER LOOP DEMAND SPLITTER,HOT WATER LOOP DEMAND INLET OUTLET WATER NODE,CORE_ZN ZN FCU HEATING COIL INLET WATER NODE,HOT WATER LOOP,Demand
     Plant Loop Connector Branches,5,Splitter,HOT WATER LOOP DEMAND SPLITTER,HOT WATER LOOP DEMAND INLET BRANCH,HOT WATER LOOP DEMAND BRANCH 5,HOT WATER LOOP,Demand
     Plant Loop Connector Nodes,   5,Splitter,HOT WATER LOOP DEMAND SPLITTER,HOT WATER LOOP DEMAND INLET OUTLET WATER NODE,PERIMETER_ZN_4 ZN FCU HEATING COIL INLET WATER NODE,HOT WATER LOOP,Demand
     Plant Loop Connector Branches,6,Splitter,HOT WATER LOOP DEMAND SPLITTER,HOT WATER LOOP DEMAND INLET BRANCH,HOT WATER LOOP DEMAND BRANCH 6,HOT WATER LOOP,Demand
     Plant Loop Connector Nodes,   6,Splitter,HOT WATER LOOP DEMAND SPLITTER,HOT WATER LOOP DEMAND INLET OUTLET WATER NODE,PERIMETER_ZN_2 ZN FCU HEATING COIL INLET WATER NODE,HOT WATER LOOP,Demand
     Plant Loop Connector Branches,7,Splitter,HOT WATER LOOP DEMAND SPLITTER,HOT WATER LOOP DEMAND INLET BRANCH,HOT WATER LOOP DEMAND BRANCH 7,HOT WATER LOOP,Demand
     Plant Loop Connector Nodes,   7,Splitter,HOT WATER LOOP DEMAND SPLITTER,HOT WATER LOOP DEMAND INLET OUTLET WATER NODE,PERIMETER_ZN_3 ZN FCU HEATING COIL INLET WATER NODE,HOT WATER LOOP,Demand
     Plant Loop Connector Branches,8,Splitter,HOT WATER LOOP DEMAND SPLITTER,HOT WATER LOOP DEMAND INLET BRANCH,HOT WATER LOOP DEMAND BYPASS BRANCH,HOT WATER LOOP,Demand
     Plant Loop Connector Nodes,   8,Splitter,HOT WATER LOOP DEMAND SPLITTER,HOT WATER LOOP DEMAND INLET OUTLET WATER NODE,HOT WATER LOOP DEMAND BYPASS PIPE INLET NODE,HOT WATER LOOP,Demand
   Plant Loop Connector,Mixer,HOT WATER LOOP DEMAND MIXER,HOT WATER LOOP,Demand,8
     Plant Loop Connector Branches,1,Mixer,HOT WATER LOOP DEMAND MIXER,HOT WATER LOOP DEMAND BRANCH 1,HOT WATER LOOP DEMAND OUTLET BRANCH,HOT WATER LOOP,Demand
     Plant Loop Connector Nodes,   1,Mixer,HOT WATER LOOP DEMAND MIXER,HOT WATER LOOP COIL BYPASS OUTLET WATER NODE,HOT WATER LOOP DEMAND OUTLET INLET WATER NODE,HOT WATER LOOP,Demand
     Plant Loop Connector Branches,2,Mixer,HOT WATER LOOP DEMAND MIXER,HOT WATER LOOP DEMAND BRANCH 2,HOT WATER LOOP DEMAND OUTLET BRANCH,HOT WATER LOOP,Demand
     Plant Loop Connector Nodes,   2,Mixer,HOT WATER LOOP DEMAND MIXER,5 ZONE DOAS HTG COIL OUTLET WATER NODE,HOT WATER LOOP DEMAND OUTLET INLET WATER NODE,HOT WATER LOOP,Demand
     Plant Loop Connector Branches,3,Mixer,HOT WATER LOOP DEMAND MIXER,HOT WATER LOOP DEMAND BRANCH 3,HOT WATER LOOP DEMAND OUTLET BRANCH,HOT WATER LOOP,Demand
     Plant Loop Connector Nodes,   3,Mixer,HOT WATER LOOP DEMAND MIXER,PERIMETER_ZN_1 ZN FCU HEATING COIL OUTLET WATER NODE,HOT WATER LOOP DEMAND OUTLET INLET WATER NODE,HOT WATER LOOP,Demand
     Plant Loop Connector Branches,4,Mixer,HOT WATER LOOP DEMAND MIXER,HOT WATER LOOP DEMAND BRANCH 4,HOT WATER LOOP DEMAND OUTLET BRANCH,HOT WATER LOOP,Demand
     Plant Loop Connector Nodes,   4,Mixer,HOT WATER LOOP DEMAND MIXER,CORE_ZN ZN FCU HEATING COIL OUTLET WATER NODE,HOT WATER LOOP DEMAND OUTLET INLET WATER NODE,HOT WATER LOOP,Demand
     Plant Loop Connector Branches,5,Mixer,HOT WATER LOOP DEMAND MIXER,HOT WATER LOOP DEMAND BRANCH 5,HOT WATER LOOP DEMAND OUTLET BRANCH,HOT WATER LOOP,Demand
     Plant Loop Connector Nodes,   5,Mixer,HOT WATER LOOP DEMAND MIXER,PERIMETER_ZN_4 ZN FCU HEATING COIL OUTLET WATER NODE,HOT WATER LOOP DEMAND OUTLET INLET WATER NODE,HOT WATER LOOP,Demand
     Plant Loop Connector Branches,6,Mixer,HOT WATER LOOP DEMAND MIXER,HOT WATER LOOP DEMAND BRANCH 6,HOT WATER LOOP DEMAND OUTLET BRANCH,HOT WATER LOOP,Demand
     Plant Loop Connector Nodes,   6,Mixer,HOT WATER LOOP DEMAND MIXER,PERIMETER_ZN_2 ZN FCU HEATING COIL OUTLET WATER NODE,HOT WATER LOOP DEMAND OUTLET INLET WATER NODE,HOT WATER LOOP,Demand
     Plant Loop Connector Branches,7,Mixer,HOT WATER LOOP DEMAND MIXER,HOT WATER LOOP DEMAND BRANCH 7,HOT WATER LOOP DEMAND OUTLET BRANCH,HOT WATER LOOP,Demand
     Plant Loop Connector Nodes,   7,Mixer,HOT WATER LOOP DEMAND MIXER,PERIMETER_ZN_3 ZN FCU HEATING COIL OUTLET WATER NODE,HOT WATER LOOP DEMAND OUTLET INLET WATER NODE,HOT WATER LOOP,Demand
     Plant Loop Connector Branches,8,Mixer,HOT WATER LOOP DEMAND MIXER,HOT WATER LOOP DEMAND BYPASS BRANCH,HOT WATER LOOP DEMAND OUTLET BRANCH,HOT WATER LOOP,Demand
     Plant Loop Connector Nodes,   8,Mixer,HOT WATER LOOP DEMAND MIXER,HOT WATER LOOP DEMAND BYPASS PIPE OUTLET NODE,HOT WATER LOOP DEMAND OUTLET INLET WATER NODE,HOT WATER LOOP,Demand
 Plant Loop,HOT WATER LOOP,Supply,HOT WATER LOOP SUPPLY INLET NODE,HOT WATER LOOP SUPPLY OUTLET NODE,HOT WATER LOOP SUPPLY BRANCHES,HOT WATER LOOP SUPPLY CONNECTOR LIST
   Plant Loop Connector,Splitter,HOT WATER LOOP SUPPLY SPLITTER,HOT WATER LOOP,Supply,2
     Plant Loop Connector Branches,1,Splitter,HOT WATER LOOP SUPPLY SPLITTER,HOT WATER LOOP SUPPLY INLET BRANCH,HOT WATER LOOP SUPPLY BRANCH 1,HOT WATER LOOP,Supply
     Plant Loop Connector Nodes,   1,Splitter,HOT WATER LOOP SUPPLY SPLITTER,HOT WATER LOOP PUMP OUTLET WATER NODE,BOILER INLET WATER NODE,HOT WATER LOOP,Supply
     Plant Loop Connector Branches,2,Splitter,HOT WATER LOOP SUPPLY SPLITTER,HOT WATER LOOP SUPPLY INLET BRANCH,HOT WATER LOOP SUPPLY BRANCH 2,HOT WATER LOOP,Supply
     Plant Loop Connector Nodes,   2,Splitter,HOT WATER LOOP SUPPLY SPLITTER,HOT WATER LOOP PUMP OUTLET WATER NODE,HOT WATER LOOP SUPPLY EQUIPMENT BYPASS INLET WATER NODE,HOT WATER LOOP,Supply
   Plant Loop Connector,Mixer,HOT WATER LOOP SUPPLY MIXER,HOT WATER LOOP,Supply,2
     Plant Loop Connector Branches,1,Mixer,HOT WATER LOOP SUPPLY MIXER,HOT WATER LOOP SUPPLY BRANCH 1,HOT WATER LOOP SUPPLY OUTLET BRANCH,HOT WATER LOOP,Supply
     Plant Loop Connector Nodes,   1,Mixer,HOT WATER LOOP SUPPLY MIXER,BOILER OUTLET WATER NODE,HOT WATER LOOP SUPPLY OUTLET INLET WATER NODE,HOT WATER LOOP,Supply
     Plant Loop Connector Branches,2,Mixer,HOT WATER LOOP SUPPLY MIXER,HOT WATER LOOP SUPPLY BRANCH 2,HOT WATER LOOP SUPPLY OUTLET BRANCH,HOT WATER LOOP,Supply
     Plant Loop Connector Nodes,   2,Mixer,HOT WATER LOOP SUPPLY MIXER,HOT WATER LOOP SUPPLY EQUIPMENT BYPASS OUTLET WATER NODE,HOT WATER LOOP SUPPLY OUTLET INLET WATER NODE,HOT WATER LOOP,Supply
 Plant Loop Supply Connection,HOT WATER LOOP,HOT WATER LOOP SUPPLY OUTLET NODE,HOT WATER LOOP DEMAND INLET NODE
 Plant Loop Return Connection,HOT WATER LOOP,HOT WATER LOOP DEMAND OUTLET NODE,HOT WATER LOOP SUPPLY INLET NODE
 Plant Loop,MAIN SERVICE WATER LOOP,Demand,MAIN SERVICE WATER LOOP DEMAND INLET NODE,MAIN SERVICE WATER LOOP DEMAND OUTLET NODE,MAIN SERVICE WATER LOOP DEMAND BRANCHES,MAIN SERVICE WATER LOOP DEMAND CONNECTOR LIST
   Plant Loop Connector,Splitter,MAIN SERVICE WATER LOOP DEMAND SPLITTER,MAIN SERVICE WATER LOOP,Demand,3
     Plant Loop Connector Branches,1,Splitter,MAIN SERVICE WATER LOOP DEMAND SPLITTER,MAIN SERVICE WATER LOOP DEMAND INLET BRANCH,MAIN SERVICE WATER LOOP DEMAND BRANCH 1,MAIN SERVICE WATER LOOP,Demand
     Plant Loop Connector Nodes,   1,Splitter,MAIN SERVICE WATER LOOP DEMAND SPLITTER,MAIN SERVICE WATER LOOP DEMAND INLET PIPE NODE,PIPE ADIABATIC 2 INLET WATER NODE,MAIN SERVICE WATER LOOP,Demand
     Plant Loop Connector Branches,2,Splitter,MAIN SERVICE WATER LOOP DEMAND SPLITTER,MAIN SERVICE WATER LOOP DEMAND INLET BRANCH,MAIN SERVICE WATER LOOP DEMAND BRANCH 2,MAIN SERVICE WATER LOOP,Demand
     Plant Loop Connector Nodes,   2,Splitter,MAIN SERVICE WATER LOOP DEMAND SPLITTER,MAIN SERVICE WATER LOOP DEMAND INLET PIPE NODE,MAIN WUC 0.06GPM 140F INLET WATER NODE,MAIN SERVICE WATER LOOP,Demand
     Plant Loop Connector Branches,3,Splitter,MAIN SERVICE WATER LOOP DEMAND SPLITTER,MAIN SERVICE WATER LOOP DEMAND INLET BRANCH,MAIN SERVICE WATER LOOP DEMAND BYPASS BRANCH,MAIN SERVICE WATER LOOP,Demand
     Plant Loop Connector Nodes,   3,Splitter,MAIN SERVICE WATER LOOP DEMAND SPLITTER,MAIN SERVICE WATER LOOP DEMAND INLET PIPE NODE,MAIN SERVICE WATER LOOP DEMAND BYPASS PIPE INLET NODE,MAIN SERVICE WATER LOOP,Demand
   Plant Loop Connector,Mixer,MAIN SERVICE WATER LOOP DEMAND MIXER,MAIN SERVICE WATER LOOP,Demand,3
     Plant Loop Connector Branches,1,Mixer,MAIN SERVICE WATER LOOP DEMAND MIXER,MAIN SERVICE WATER LOOP DEMAND BRANCH 1,MAIN SERVICE WATER LOOP DEMAND OUTLET BRANCH,MAIN SERVICE WATER LOOP,Demand
     Plant Loop Connector Nodes,   1,Mixer,MAIN SERVICE WATER LOOP DEMAND MIXER,PIPE ADIABATIC 2 OUTLET WATER NODE,PIPE ADIABATIC 4 INLET WATER NODE,MAIN SERVICE WATER LOOP,Demand
     Plant Loop Connector Branches,2,Mixer,MAIN SERVICE WATER LOOP DEMAND MIXER,MAIN SERVICE WATER LOOP DEMAND BRANCH 2,MAIN SERVICE WATER LOOP DEMAND OUTLET BRANCH,MAIN SERVICE WATER LOOP,Demand
     Plant Loop Connector Nodes,   2,Mixer,MAIN SERVICE WATER LOOP DEMAND MIXER,MAIN WUC 0.06GPM 140F OUTLET WATER NODE,PIPE ADIABATIC 4 INLET WATER NODE,MAIN SERVICE WATER LOOP,Demand
     Plant Loop Connector Branches,3,Mixer,MAIN SERVICE WATER LOOP DEMAND MIXER,MAIN SERVICE WATER LOOP DEMAND BYPASS BRANCH,MAIN SERVICE WATER LOOP DEMAND OUTLET BRANCH,MAIN SERVICE WATER LOOP,Demand
     Plant Loop Connector Nodes,   3,Mixer,MAIN SERVICE WATER LOOP DEMAND MIXER,MAIN SERVICE WATER LOOP DEMAND BYPASS PIPE OUTLET NODE,PIPE ADIABATIC 4 INLET WATER NODE,MAIN SERVICE WATER LOOP,Demand
 Plant Loop,MAIN SERVICE WATER LOOP,Supply,MAIN SERVICE WATER LOOP SUPPLY INLET NODE,MAIN SERVICE WATER LOOP SUPPLY OUTLET NODE,MAIN SERVICE WATER LOOP SUPPLY BRANCHES,MAIN SERVICE WATER LOOP SUPPLY CONNECTOR LIST
   Plant Loop Connector,Splitter,MAIN SERVICE WATER LOOP SUPPLY SPLITTER,MAIN SERVICE WATER LOOP,Supply,2
     Plant Loop Connector Branches,1,Splitter,MAIN SERVICE WATER LOOP SUPPLY SPLITTER,MAIN SERVICE WATER LOOP SUPPLY INLET BRANCH,MAIN SERVICE WATER LOOP SUPPLY BRANCH 1,MAIN SERVICE WATER LOOP,Supply
     Plant Loop Connector Nodes,   1,Splitter,MAIN SERVICE WATER LOOP SUPPLY SPLITTER,MAIN SERVICE WATER LOOP WATER MAINS PRESSURE DRIVEN OUTLET WATER NODE,40GAL ELECTRICITY WATER HEATER - 40KBTU/HR 1.0 THERM EFF SUPPLY INLET WATER NODE,MAIN SERVICE WATER LOOP,Supply
     Plant Loop Connector Branches,2,Splitter,MAIN SERVICE WATER LOOP SUPPLY SPLITTER,MAIN SERVICE WATER LOOP SUPPLY INLET BRANCH,MAIN SERVICE WATER LOOP SUPPLY BRANCH 2,MAIN SERVICE WATER LOOP,Supply
     Plant Loop Connector Nodes,   2,Splitter,MAIN SERVICE WATER LOOP SUPPLY SPLITTER,MAIN SERVICE WATER LOOP WATER MAINS PRESSURE DRIVEN OUTLET WATER NODE,PIPE ADIABATIC 1 INLET WATER NODE,MAIN SERVICE WATER LOOP,Supply
   Plant Loop Connector,Mixer,MAIN SERVICE WATER LOOP SUPPLY MIXER,MAIN SERVICE WATER LOOP,Supply,2
     Plant Loop Connector Branches,1,Mixer,MAIN SERVICE WATER LOOP SUPPLY MIXER,MAIN SERVICE WATER LOOP SUPPLY BRANCH 1,MAIN SERVICE WATER LOOP SUPPLY OUTLET BRANCH,MAIN SERVICE WATER LOOP,Supply
     Plant Loop Connector Nodes,   1,Mixer,MAIN SERVICE WATER LOOP SUPPLY MIXER,40GAL ELECTRICITY WATER HEATER - 40KBTU/HR 1.0 THERM EFF SUPPLY OUTLET WATER NODE,PIPE ADIABATIC 3 INLET WATER NODE,MAIN SERVICE WATER LOOP,Supply
     Plant Loop Connector Branches,2,Mixer,MAIN SERVICE WATER LOOP SUPPLY MIXER,MAIN SERVICE WATER LOOP SUPPLY BRANCH 2,MAIN SERVICE WATER LOOP SUPPLY OUTLET BRANCH,MAIN SERVICE WATER LOOP,Supply
     Plant Loop Connector Nodes,   2,Mixer,MAIN SERVICE WATER LOOP SUPPLY MIXER,PIPE ADIABATIC 1 OUTLET WATER NODE,PIPE ADIABATIC 3 INLET WATER NODE,MAIN SERVICE WATER LOOP,Supply
 Plant Loop Supply Connection,MAIN SERVICE WATER LOOP,MAIN SERVICE WATER LOOP SUPPLY OUTLET NODE,MAIN SERVICE WATER LOOP DEMAND INLET NODE
 Plant Loop Return Connection,MAIN SERVICE WATER LOOP,MAIN SERVICE WATER LOOP DEMAND OUTLET NODE,MAIN SERVICE WATER LOOP SUPPLY INLET NODE
! ===============================================================
! <# Condenser Loops>,<Number of Condenser Loops>
 #Condenser Loops,0
! <Condenser Loop>,<Condenser Loop Name>,<Loop Type>,<Inlet Node Name>,<Outlet Node Name>,<Branch List>,<Connector List>
! <Condenser Loop Connector>,<Connector Type>,<Connector Name>,<Loop Name>,<Loop Type>,<Number of Inlets/Outlets>
! <Condenser Loop Connector Branches>,<Connector Node Count>,<Connector Type>,<Connector Name>,<Inlet Branch>,<Outlet Branch>,<Loop Name>,<Loop Type>
! <Condenser Loop Connector Nodes>,<Connector Node Count>,<Connector Type>,<Connector Name>,<Inlet Node>,<Outlet Node>,<Loop Name>,<Loop Type>
! <Condenser Loop Supply Connection>,<Condenser Loop Name>,<Supply Side Outlet Node Name>,<Demand Side Inlet Node Name>
! <Condenser Loop Return Connection>,<Condenser Loop Name>,<Demand Side Outlet Node Name>,<Supply Side Inlet Node Name>
! ===============================================================
! <# Controlled Zones>,<Number of Controlled Zones>
 #Controlled Zones,5
! <Controlled Zone>,<Controlled Zone Name>,<Equip List Name>,<Control List Name>,<Zone Node Name>,<# Inlet Nodes>,<# Exhaust Nodes>,<# Return Nodes>
! <Controlled Zone Inlet>,<Inlet Node Count>,<Controlled Zone Name>,<Supply Air Inlet Node Name>,<SD Sys:Cooling/Heating [DD:Cooling] Inlet Node Name>,<DD Sys:Heating Inlet Node Name>
! <Controlled Zone Exhaust>,<Exhaust Node Count>,<Controlled Zone Name>,<Exhaust Air Node Name>
 Controlled Zone,CORE_ZN ZN,CORE_ZN ZN EQUIPMENT LIST,,CORE_ZN ZN ZONE AIR NODE,2,1,1
   Controlled Zone Inlet,1,CORE_ZN ZN,CORE_ZN ZN AIR TERMINAL OUTLET AIR NODE,CORE_ZN ZN AIR TERMINAL INLET AIR NODE,N/A
   Controlled Zone Inlet,2,CORE_ZN ZN,CORE_ZN ZN FCU OUTLET AIR NODE,Undefined,N/A
   Controlled Zone Exhaust,1,CORE_ZN ZN,CORE_ZN ZN FCU INLET AIR NODE
   Controlled Zone Return,1,CORE_ZN ZN,CORE_ZN ZN RETURN AIR NODE
 Controlled Zone,PERIMETER_ZN_1 ZN,PERIMETER_ZN_1 ZN EQUIPMENT LIST,,PERIMETER_ZN_1 ZN ZONE AIR NODE,2,1,1
   Controlled Zone Inlet,1,PERIMETER_ZN_1 ZN,PERIMETER_ZN_1 ZN AIR TERMINAL OUTLET AIR NODE,PERIMETER_ZN_1 ZN AIR TERMINAL INLET AIR NODE,N/A
   Controlled Zone Inlet,2,PERIMETER_ZN_1 ZN,PERIMETER_ZN_1 ZN FCU OUTLET AIR NODE,Undefined,N/A
   Controlled Zone Exhaust,1,PERIMETER_ZN_1 ZN,PERIMETER_ZN_1 ZN FCU INLET AIR NODE
   Controlled Zone Return,1,PERIMETER_ZN_1 ZN,PERIMETER_ZN_1 ZN RETURN AIR NODE
 Controlled Zone,PERIMETER_ZN_2 ZN,PERIMETER_ZN_2 ZN EQUIPMENT LIST,,PERIMETER_ZN_2 ZN ZONE AIR NODE,2,1,1
   Controlled Zone Inlet,1,PERIMETER_ZN_2 ZN,PERIMETER_ZN_2 ZN AIR TERMINAL OUTLET AIR NODE,PERIMETER_ZN_2 ZN AIR TERMINAL INLET AIR NODE,N/A
   Controlled Zone Inlet,2,PERIMETER_ZN_2 ZN,PERIMETER_ZN_2 ZN FCU OUTLET AIR NODE,Undefined,N/A
   Controlled Zone Exhaust,1,PERIMETER_ZN_2 ZN,PERIMETER_ZN_2 ZN FCU INLET AIR NODE
   Controlled Zone Return,1,PERIMETER_ZN_2 ZN,PERIMETER_ZN_2 ZN RETURN AIR NODE
 Controlled Zone,PERIMETER_ZN_3 ZN,PERIMETER_ZN_3 ZN EQUIPMENT LIST,,PERIMETER_ZN_3 ZN ZONE AIR NODE,2,1,1
   Controlled Zone Inlet,1,PERIMETER_ZN_3 ZN,PERIMETER_ZN_3 ZN AIR TERMINAL OUTLET AIR NODE,PERIMETER_ZN_3 ZN AIR TERMINAL INLET AIR NODE,N/A
   Controlled Zone Inlet,2,PERIMETER_ZN_3 ZN,PERIMETER_ZN_3 ZN FCU OUTLET AIR NODE,Undefined,N/A
   Controlled Zone Exhaust,1,PERIMETER_ZN_3 ZN,PERIMETER_ZN_3 ZN FCU INLET AIR NODE
   Controlled Zone Return,1,PERIMETER_ZN_3 ZN,PERIMETER_ZN_3 ZN RETURN AIR NODE
 Controlled Zone,PERIMETER_ZN_4 ZN,PERIMETER_ZN_4 ZN EQUIPMENT LIST,,PERIMETER_ZN_4 ZN ZONE AIR NODE,2,1,1
   Controlled Zone Inlet,1,PERIMETER_ZN_4 ZN,PERIMETER_ZN_4 ZN AIR TERMINAL OUTLET AIR NODE,PERIMETER_ZN_4 ZN AIR TERMINAL INLET AIR NODE,N/A
   Controlled Zone Inlet,2,PERIMETER_ZN_4 ZN,PERIMETER_ZN_4 ZN FCU OUTLET AIR NODE,Undefined,N/A
   Controlled Zone Exhaust,1,PERIMETER_ZN_4 ZN,PERIMETER_ZN_4 ZN FCU INLET AIR NODE
   Controlled Zone Return,1,PERIMETER_ZN_4 ZN,PERIMETER_ZN_4 ZN RETURN AIR NODE
! ===============================================================
! <#Zone Equipment Lists>,<Number of Zone Equipment Lists>
 #Zone Equipment Lists,5
! <Zone Equipment List>,<Zone Equipment List Count>,<Zone Equipment List Name>,<Zone Name>,<Number of Components>
! <Zone Equipment Component>,<Component Count>,<Component Type>,<Component Name>,<Zone Name>,<Heating Priority>,<Cooling Priority>
 Zone Equipment List,2,CORE_ZN ZN EQUIPMENT LIST,CORE_ZN ZN,2
   Zone Equipment Component,1,ZONEHVAC:AIRDISTRIBUTIONUNIT,ADU CORE_ZN ZN AIR TERMINAL,CORE_ZN ZN,1,1
   Zone Equipment Component,2,ZONEHVAC:FOURPIPEFANCOIL,CORE_ZN ZN FCU,CORE_ZN ZN,2,2
 Zone Equipment List,3,PERIMETER_ZN_1 ZN EQUIPMENT LIST,PERIMETER_ZN_1 ZN,2
   Zone Equipment Component,1,ZONEHVAC:AIRDISTRIBUTIONUNIT,ADU PERIMETER_ZN_1 ZN AIR TERMINAL,PERIMETER_ZN_1 ZN,1,1
   Zone Equipment Component,2,ZONEHVAC:FOURPIPEFANCOIL,PERIMETER_ZN_1 ZN FCU,PERIMETER_ZN_1 ZN,2,2
 Zone Equipment List,4,PERIMETER_ZN_2 ZN EQUIPMENT LIST,PERIMETER_ZN_2 ZN,2
   Zone Equipment Component,1,ZONEHVAC:AIRDISTRIBUTIONUNIT,ADU PERIMETER_ZN_2 ZN AIR TERMINAL,PERIMETER_ZN_2 ZN,1,1
   Zone Equipment Component,2,ZONEHVAC:FOURPIPEFANCOIL,PERIMETER_ZN_2 ZN FCU,PERIMETER_ZN_2 ZN,2,2
 Zone Equipment List,5,PERIMETER_ZN_3 ZN EQUIPMENT LIST,PERIMETER_ZN_3 ZN,2
   Zone Equipment Component,1,ZONEHVAC:AIRDISTRIBUTIONUNIT,ADU PERIMETER_ZN_3 ZN AIR TERMINAL,PERIMETER_ZN_3 ZN,1,1
   Zone Equipment Component,2,ZONEHVAC:FOURPIPEFANCOIL,PERIMETER_ZN_3 ZN FCU,PERIMETER_ZN_3 ZN,2,2
 Zone Equipment List,6,PERIMETER_ZN_4 ZN EQUIPMENT LIST,PERIMETER_ZN_4 ZN,2
   Zone Equipment Component,1,ZONEHVAC:AIRDISTRIBUTIONUNIT,ADU PERIMETER_ZN_4 ZN AIR TERMINAL,PERIMETER_ZN_4 ZN,1,1
   Zone Equipment Component,2,ZONEHVAC:FOURPIPEFANCOIL,PERIMETER_ZN_4 ZN FCU,PERIMETER_ZN_4 ZN,2,2
! ===============================================================
! <#AirLoopHVACs>,<Number of AirLoopHVACs>
 #AirLoopHVACs,1
! <AirLoopHVAC>,<Air Loop Name>,<# Return Nodes>,<# Supply Nodes>,<# Zones Cooled>,<# Zones Heated>,<Outdoor Air Used>
! <AirLoop Return Connections>,<Connection Count>,<AirLoopHVAC Name>,<Zn Eqp Return Node #>,<Zn Eqp Return Node Name>,<AirLoop Return Node #>,<Air Loop Return Node Name>
! <AirLoop Supply Connections>,<Connection Count>,<AirLoopHVAC Name>,<Zn Eqp Supply Node #>,<Zn Eqp Supply Node Name>,<AirLoop Supply Node #>,<Air Loop Supply Node Name>
! <Cooled Zone Info>,<Cooled Zone Count>,<Cooled Zone Name>,<Cooled Zone Inlet Node #>,<Cooled Zone Inlet Node Name>,<AirLoopHVAC Name>
! <Heated Zone Info>,<Heated Zone Count>,<Heated Zone Name>,<Heated Zone Inlet Node #>,<Heated Zone Inlet Node Name>,<AirLoopHVAC Name>
! <Outdoor Air Connections>,<OA Inlet Node #>,<OA Return Air Inlet Node Name>,<OA Outlet Node #>,<OA Mixed Air Outlet Node Name>,<AirLoopHVAC Name>
! <AirLoopHVAC Connector>,<Connector Type>,<Connector Name>,<Loop Name>,<Loop Type>,<Number of Inlets/Outlets>
! <AirLoopHVAC Connector Branches>,<Connector Node Count>,<Connector Type>,<Connector Name>,<Inlet Branch>,<Outlet Branch>,<Loop Name>,<Loop Type>
! <AirLoopHVAC Connector Nodes>,<Connector Node Count>,<Connector Type>,<Connector Name>,<Inlet Node>,<Outlet Node>,<Loop Name>,<Loop Type>
 AirLoopHVAC,5 ZONE DOAS,1,1,5,0,Yes
   AirLoop Return Connections,1,5 ZONE DOAS,129,5 ZONE DOAS DEMAND OUTLET NODE,23,5 ZONE DOAS SUPPLY INLET NODE
   AirLoop Supply Connections,1,5 ZONE DOAS,22,5 ZONE DOAS DEMAND INLET NODE,21,5 ZONE DOAS SUPPLY OUTLET NODE
   Cooled Zone Info,1,PERIMETER_ZN_1 ZN,5,PERIMETER_ZN_1 ZN AIR TERMINAL OUTLET AIR NODE,5 ZONE DOAS
   Cooled Zone Info,2,CORE_ZN ZN,1,CORE_ZN ZN AIR TERMINAL OUTLET AIR NODE,5 ZONE DOAS
   Cooled Zone Info,3,PERIMETER_ZN_4 ZN,17,PERIMETER_ZN_4 ZN AIR TERMINAL OUTLET AIR NODE,5 ZONE DOAS
   Cooled Zone Info,4,PERIMETER_ZN_2 ZN,9,PERIMETER_ZN_2 ZN AIR TERMINAL OUTLET AIR NODE,5 ZONE DOAS
   Cooled Zone Info,5,PERIMETER_ZN_3 ZN,13,PERIMETER_ZN_3 ZN AIR TERMINAL OUTLET AIR NODE,5 ZONE DOAS
   Outdoor Air Connections,24,DOAS EXHAUST FAN OUTLET AIR NODE,25,5 ZONE DOAS MIXED AIR NODE,5 ZONE DOAS
[...]
 Non-Parent Node Connection,BOILER INLET WATER NODE,BOILER:HOTWATER,BOILER 48KBTU/HR 0.94 COMBUSTION EFF,Inlet,1
 Non-Parent Node Connection,BOILER OUTLET WATER NODE,BOILER:HOTWATER,BOILER 48KBTU/HR 0.94 COMBUSTION EFF,Outlet,1
 Non-Parent Node Connection,HOT WATER LOOP PUMP OUTLET WATER NODE,CONNECTOR:SPLITTER,HOT WATER LOOP SUPPLY SPLITTER,Inlet,1
 Non-Parent Node Connection,BOILER INLET WATER NODE,CONNECTOR:SPLITTER,HOT WATER LOOP SUPPLY SPLITTER,Outlet,1
 Non-Parent Node Connection,HOT WATER LOOP SUPPLY EQUIPMENT BYPASS INLET WATER NODE,CONNECTOR:SPLITTER,HOT WATER LOOP SUPPLY SPLITTER,Outlet,1
 Non-Parent Node Connection,HOT WATER LOOP SUPPLY OUTLET INLET WATER NODE,CONNECTOR:MIXER,HOT WATER LOOP SUPPLY MIXER,Outlet,1
 Non-Parent Node Connection,BOILER OUTLET WATER NODE,CONNECTOR:MIXER,HOT WATER LOOP SUPPLY MIXER,Inlet,1
 Non-Parent Node Connection,HOT WATER LOOP SUPPLY EQUIPMENT BYPASS OUTLET WATER NODE,CONNECTOR:MIXER,HOT WATER LOOP SUPPLY MIXER,Inlet,1
 Non-Parent Node Connection,MAIN WUC 0.06GPM 140F INLET WATER NODE,WATERUSE:CONNECTIONS,MAIN WUC 0.06GPM 140F,Inlet,1
 Non-Parent Node Connection,MAIN WUC 0.06GPM 140F OUTLET WATER NODE,WATERUSE:CONNECTIONS,MAIN WUC 0.06GPM 140F,Outlet,1
 Non-Parent Node Connection,MAIN SERVICE WATER LOOP DEMAND INLET PIPE NODE,CONNECTOR:SPLITTER,MAIN SERVICE WATER LOOP DEMAND SPLITTER,Inlet,1
 Non-Parent Node Connection,PIPE ADIABATIC 2 INLET WATER NODE,CONNECTOR:SPLITTER,MAIN SERVICE WATER LOOP DEMAND SPLITTER,Outlet,1
 Non-Parent Node Connection,MAIN WUC 0.06GPM 140F INLET WATER NODE,CONNECTOR:SPLITTER,MAIN SERVICE WATER LOOP DEMAND SPLITTER,Outlet,1
 Non-Parent Node Connection,MAIN SERVICE WATER LOOP DEMAND BYPASS PIPE INLET NODE,CONNECTOR:SPLITTER,MAIN SERVICE WATER LOOP DEMAND SPLITTER,Outlet,1
 Non-Parent Node Connection,PIPE ADIABATIC 4 INLET WATER NODE,CONNECTOR:MIXER,MAIN SERVICE WATER LOOP DEMAND MIXER,Outlet,1
 Non-Parent Node Connection,PIPE ADIABATIC 2 OUTLET WATER NODE,CONNECTOR:MIXER,MAIN SERVICE WATER LOOP DEMAND MIXER,Inlet,1
 Non-Parent Node Connection,MAIN WUC 0.06GPM 140F OUTLET WATER NODE,CONNECTOR:MIXER,MAIN SERVICE WATER LOOP DEMAND MIXER,Inlet,1
 Non-Parent Node Connection,MAIN SERVICE WATER LOOP DEMAND BYPASS PIPE OUTLET NODE,CONNECTOR:MIXER,MAIN SERVICE WATER LOOP DEMAND MIXER,Inlet,1
 Non-Parent Node Connection,MAIN SERVICE WATER LOOP WATER MAINS PRESSURE DRIVEN OUTLET WATER NODE,CONNECTOR:SPLITTER,MAIN SERVICE WATER LOOP SUPPLY SPLITTER,Inlet,1
 Non-Parent Node Connection,40GAL ELECTRICITY WATER HEATER - 40KBTU/HR 1.0 THERM EFF SUPPLY INLET WATER NODE,CONNECTOR:SPLITTER,MAIN SERVICE WATER LOOP SUPPLY SPLITTER,Outlet,1
 Non-Parent Node Connection,PIPE ADIABATIC 1 INLET WATER NODE,CONNECTOR:SPLITTER,MAIN SERVICE WATER LOOP SUPPLY SPLITTER,Outlet,1
 Non-Parent Node Connection,PIPE ADIABATIC 3 INLET WATER NODE,CONNECTOR:MIXER,MAIN SERVICE WATER LOOP SUPPLY MIXER,Outlet,1
 Non-Parent Node Connection,40GAL ELECTRICITY WATER HEATER - 40KBTU/HR 1.0 THERM EFF SUPPLY OUTLET WATER NODE,CONNECTOR:MIXER,MAIN SERVICE WATER LOOP SUPPLY MIXER,Inlet,1
 Non-Parent Node Connection,PIPE ADIABATIC 1 OUTLET WATER NODE,CONNECTOR:MIXER,MAIN SERVICE WATER LOOP SUPPLY MIXER,Inlet,1
 Non-Parent Node Connection,5 ZONE DOAS DEMAND INLET NODE,AIRLOOPHVAC:ZONESPLITTER,AIR LOOP HVAC ZONE SPLITTER 1,Inlet,1
 Non-Parent Node Connection,PERIMETER_ZN_1 ZN AIR TERMINAL INLET AIR NODE,AIRLOOPHVAC:ZONESPLITTER,AIR LOOP HVAC ZONE SPLITTER 1,Outlet,1
 Non-Parent Node Connection,CORE_ZN ZN AIR TERMINAL INLET AIR NODE,AIRLOOPHVAC:ZONESPLITTER,AIR LOOP HVAC ZONE SPLITTER 1,Outlet,1
 Non-Parent Node Connection,PERIMETER_ZN_4 ZN AIR TERMINAL INLET AIR NODE,AIRLOOPHVAC:ZONESPLITTER,AIR LOOP HVAC ZONE SPLITTER 1,Outlet,1
 Non-Parent Node Connection,PERIMETER_ZN_2 ZN AIR TERMINAL INLET AIR NODE,AIRLOOPHVAC:ZONESPLITTER,AIR LOOP HVAC ZONE SPLITTER 1,Outlet,1
 Non-Parent Node Connection,PERIMETER_ZN_3 ZN AIR TERMINAL INLET AIR NODE,AIRLOOPHVAC:ZONESPLITTER,AIR LOOP HVAC ZONE SPLITTER 1,Outlet,1
 Non-Parent Node Connection,CORE_ZN ZN AIR TERMINAL OUTLET AIR NODE,AIRTERMINAL:SINGLEDUCT:VAV:NOREHEAT,CORE_ZN ZN AIR TERMINAL,Outlet,1
 Non-Parent Node Connection,CORE_ZN ZN AIR TERMINAL INLET AIR NODE,AIRTERMINAL:SINGLEDUCT:VAV:NOREHEAT,CORE_ZN ZN AIR TERMINAL,Inlet,1
 Non-Parent Node Connection,PERIMETER_ZN_1 ZN AIR TERMINAL OUTLET AIR NODE,AIRTERMINAL:SINGLEDUCT:VAV:NOREHEAT,PERIMETER_ZN_1 ZN AIR TERMINAL,Outlet,1
 Non-Parent Node Connection,PERIMETER_ZN_1 ZN AIR TERMINAL INLET AIR NODE,AIRTERMINAL:SINGLEDUCT:VAV:NOREHEAT,PERIMETER_ZN_1 ZN AIR TERMINAL,Inlet,1
 Non-Parent Node Connection,PERIMETER_ZN_2 ZN AIR TERMINAL OUTLET AIR NODE,AIRTERMINAL:SINGLEDUCT:VAV:NOREHEAT,PERIMETER_ZN_2 ZN AIR TERMINAL,Outlet,1
 Non-Parent Node Connection,PERIMETER_ZN_2 ZN AIR TERMINAL INLET AIR NODE,AIRTERMINAL:SINGLEDUCT:VAV:NOREHEAT,PERIMETER_ZN_2 ZN AIR TERMINAL,Inlet,1
 Non-Parent Node Connection,PERIMETER_ZN_3 ZN AIR TERMINAL OUTLET AIR NODE,AIRTERMINAL:SINGLEDUCT:VAV:NOREHEAT,PERIMETER_ZN_3 ZN AIR TERMINAL,Outlet,1
 Non-Parent Node Connection,PERIMETER_ZN_3 ZN AIR TERMINAL INLET AIR NODE,AIRTERMINAL:SINGLEDUCT:VAV:NOREHEAT,PERIMETER_ZN_3 ZN AIR TERMINAL,Inlet,1
 Non-Parent Node Connection,PERIMETER_ZN_4 ZN AIR TERMINAL OUTLET AIR NODE,AIRTERMINAL:SINGLEDUCT:VAV:NOREHEAT,PERIMETER_ZN_4 ZN AIR TERMINAL,Outlet,1
 Non-Parent Node Connection,PERIMETER_ZN_4 ZN AIR TERMINAL INLET AIR NODE,AIRTERMINAL:SINGLEDUCT:VAV:NOREHEAT,PERIMETER_ZN_4 ZN AIR TERMINAL,Inlet,1
 Non-Parent Node Connection,CORE_ZN ZN FCU MIXED AIR NODE,OUTDOORAIR:MIXER,CORE_ZN ZN FCU OA MIXER,Outlet,1
 Non-Parent Node Connection,CORE_ZN ZN FCU OA NODE,OUTDOORAIR:MIXER,CORE_ZN ZN FCU OA MIXER,Inlet,1
 Non-Parent Node Connection,CORE_ZN ZN FCU RELIEF AIR NODE,OUTDOORAIR:MIXER,CORE_ZN ZN FCU OA MIXER,ReliefAir,1
 Non-Parent Node Connection,CORE_ZN ZN FCU INLET AIR NODE,OUTDOORAIR:MIXER,CORE_ZN ZN FCU OA MIXER,Inlet,1
 Non-Parent Node Connection,PERIMETER_ZN_1 ZN FCU MIXED AIR NODE,OUTDOORAIR:MIXER,PERIMETER_ZN_1 ZN FCU OA MIXER,Outlet,1
 Non-Parent Node Connection,PERIMETER_ZN_1 ZN FCU OA NODE,OUTDOORAIR:MIXER,PERIMETER_ZN_1 ZN FCU OA MIXER,Inlet,1
 Non-Parent Node Connection,PERIMETER_ZN_1 ZN FCU RELIEF AIR NODE,OUTDOORAIR:MIXER,PERIMETER_ZN_1 ZN FCU OA MIXER,ReliefAir,1
 Non-Parent Node Connection,PERIMETER_ZN_1 ZN FCU INLET AIR NODE,OUTDOORAIR:MIXER,PERIMETER_ZN_1 ZN FCU OA MIXER,Inlet,1
 Non-Parent Node Connection,PERIMETER_ZN_2 ZN FCU MIXED AIR NODE,OUTDOORAIR:MIXER,PERIMETER_ZN_2 ZN FCU OA MIXER,Outlet,1
 Non-Parent Node Connection,PERIMETER_ZN_2 ZN FCU OA NODE,OUTDOORAIR:MIXER,PERIMETER_ZN_2 ZN FCU OA MIXER,Inlet,1
 Non-Parent Node Connection,PERIMETER_ZN_2 ZN FCU RELIEF AIR NODE,OUTDOORAIR:MIXER,PERIMETER_ZN_2 ZN FCU OA MIXER,ReliefAir,1
 Non-Parent Node Connection,PERIMETER_ZN_2 ZN FCU INLET AIR NODE,OUTDOORAIR:MIXER,PERIMETER_ZN_2 ZN FCU OA MIXER,Inlet,1
 Non-Parent Node Connection,PERIMETER_ZN_3 ZN FCU MIXED AIR NODE,OUTDOORAIR:MIXER,PERIMETER_ZN_3 ZN FCU OA MIXER,Outlet,1
 Non-Parent Node Connection,PERIMETER_ZN_3 ZN FCU OA NODE,OUTDOORAIR:MIXER,PERIMETER_ZN_3 ZN FCU OA MIXER,Inlet,1
 Non-Parent Node Connection,PERIMETER_ZN_3 ZN FCU RELIEF AIR NODE,OUTDOORAIR:MIXER,PERIMETER_ZN_3 ZN FCU OA MIXER,ReliefAir,1
 Non-Parent Node Connection,PERIMETER_ZN_3 ZN FCU INLET AIR NODE,OUTDOORAIR:MIXER,PERIMETER_ZN_3 ZN FCU OA MIXER,Inlet,1
 Non-Parent Node Connection,PERIMETER_ZN_4 ZN FCU MIXED AIR NODE,OUTDOORAIR:MIXER,PERIMETER_ZN_4 ZN FCU OA MIXER,Outlet,1
 Non-Parent Node Connection,PERIMETER_ZN_4 ZN FCU OA NODE,OUTDOORAIR:MIXER,PERIMETER_ZN_4 ZN FCU OA MIXER,Inlet,1
 Non-Parent Node Connection,PERIMETER_ZN_4 ZN FCU RELIEF AIR NODE,OUTDOORAIR:MIXER,PERIMETER_ZN_4 ZN FCU OA MIXER,ReliefAir,1
 Non-Parent Node Connection,PERIMETER_ZN_4 ZN FCU INLET AIR NODE,OUTDOORAIR:MIXER,PERIMETER_ZN_4 ZN FCU OA MIXER,Inlet,1
 Non-Parent Node Connection,5 ZONE DOAS MIXED AIR NODE,OUTDOORAIR:MIXER,5 ZONE DOAS OA SYSTEM OUTDOOR AIR MIXER,Outlet,1
 Non-Parent Node Connection,5 ZONE DOAS OUTDOOR AIR NODE,OUTDOORAIR:MIXER,5 ZONE DOAS OA SYSTEM OUTDOOR AIR MIXER,Inlet,1
 Non-Parent Node Connection,5 ZONE DOAS RELIEF AIR NODE,OUTDOORAIR:MIXER,5 ZONE DOAS OA SYSTEM OUTDOOR AIR MIXER,ReliefAir,1
 Non-Parent Node Connection,DOAS EXHAUST FAN OUTLET AIR NODE,OUTDOORAIR:MIXER,5 ZONE DOAS OA SYSTEM OUTDOOR AIR MIXER,Inlet,1
 Non-Parent Node Connection,CORE_ZN ZN FCU HEATING COIL INLET WATER NODE,COIL:HEATING:WATER,CORE_ZN ZN FCU HEATING COIL,Inlet,2
 Non-Parent Node Connection,CORE_ZN ZN FCU HEATING COIL OUTLET WATER NODE,COIL:HEATING:WATER,CORE_ZN ZN FCU HEATING COIL,Outlet,2
 Non-Parent Node Connection,CORE_ZN ZN FCU COOLING COIL OUTLET NODE,COIL:HEATING:WATER,CORE_ZN ZN FCU HEATING COIL,Inlet,1
 Non-Parent Node Connection,CORE_ZN ZN FCU OUTLET AIR NODE,COIL:HEATING:WATER,CORE_ZN ZN FCU HEATING COIL,Outlet,1
 Non-Parent Node Connection,PERIMETER_ZN_1 ZN FCU HEATING COIL INLET WATER NODE,COIL:HEATING:WATER,PERIMETER_ZN_1 ZN FCU HEATING COIL,Inlet,2
 Non-Parent Node Connection,PERIMETER_ZN_1 ZN FCU HEATING COIL OUTLET WATER NODE,COIL:HEATING:WATER,PERIMETER_ZN_1 ZN FCU HEATING COIL,Outlet,2
 Non-Parent Node Connection,PERIMETER_ZN_1 ZN FCU COOLING COIL OUTLET NODE,COIL:HEATING:WATER,PERIMETER_ZN_1 ZN FCU HEATING COIL,Inlet,1
 Non-Parent Node Connection,PERIMETER_ZN_1 ZN FCU OUTLET AIR NODE,COIL:HEATING:WATER,PERIMETER_ZN_1 ZN FCU HEATING COIL,Outlet,1
 Non-Parent Node Connection,PERIMETER_ZN_2 ZN FCU HEATING COIL INLET WATER NODE,COIL:HEATING:WATER,PERIMETER_ZN_2 ZN FCU HEATING COIL,Inlet,2
 Non-Parent Node Connection,PERIMETER_ZN_2 ZN FCU HEATING COIL OUTLET WATER NODE,COIL:HEATING:WATER,PERIMETER_ZN_2 ZN FCU HEATING COIL,Outlet,2
 Non-Parent Node Connection,PERIMETER_ZN_2 ZN FCU COOLING COIL OUTLET NODE,COIL:HEATING:WATER,PERIMETER_ZN_2 ZN FCU HEATING COIL,Inlet,1
 Non-Parent Node Connection,PERIMETER_ZN_2 ZN FCU OUTLET AIR NODE,COIL:HEATING:WATER,PERIMETER_ZN_2 ZN FCU HEATING COIL,Outlet,1
 Non-Parent Node Connection,PERIMETER_ZN_3 ZN FCU HEATING COIL INLET WATER NODE,COIL:HEATING:WATER,PERIMETER_ZN_3 ZN FCU HEATING COIL,Inlet,2
 Non-Parent Node Connection,PERIMETER_ZN_3 ZN FCU HEATING COIL OUTLET WATER NODE,COIL:HEATING:WATER,PERIMETER_ZN_3 ZN FCU HEATING COIL,Outlet,2
 Non-Parent Node Connection,PERIMETER_ZN_3 ZN FCU COOLING COIL OUTLET NODE,COIL:HEATING:WATER,PERIMETER_ZN_3 ZN FCU HEATING COIL,Inlet,1
 Non-Parent Node Connection,PERIMETER_ZN_3 ZN FCU OUTLET AIR NODE,COIL:HEATING:WATER,PERIMETER_ZN_3 ZN FCU HEATING COIL,Outlet,1
 Non-Parent Node Connection,PERIMETER_ZN_4 ZN FCU HEATING COIL INLET WATER NODE,COIL:HEATING:WATER,PERIMETER_ZN_4 ZN FCU HEATING COIL,Inlet,2
 Non-Parent Node Connection,PERIMETER_ZN_4 ZN FCU HEATING COIL OUTLET WATER NODE,COIL:HEATING:WATER,PERIMETER_ZN_4 ZN FCU HEATING COIL,Outlet,2
 Non-Parent Node Connection,PERIMETER_ZN_4 ZN FCU COOLING COIL OUTLET NODE,COIL:HEATING:WATER,PERIMETER_ZN_4 ZN FCU HEATING COIL,Inlet,1
 Non-Parent Node Connection,PERIMETER_ZN_4 ZN FCU OUTLET AIR NODE,COIL:HEATING:WATER,PERIMETER_ZN_4 ZN FCU HEATING COIL,Outlet,1
 Non-Parent Node Connection,5 ZONE DOAS HTG COIL INLET WATER NODE,COIL:HEATING:WATER,5 ZONE DOAS HTG COIL,Inlet,2
 Non-Parent Node Connection,5 ZONE DOAS HTG COIL OUTLET WATER NODE,COIL:HEATING:WATER,5 ZONE DOAS HTG COIL,Outlet,2
 Non-Parent Node Connection,5 ZONE DOAS CLG COIL OUTLET AIR NODE,COIL:HEATING:WATER,5 ZONE DOAS HTG COIL,Inlet,1
 Non-Parent Node Connection,5 ZONE DOAS HTG COIL OUTLET AIR NODE,COIL:HEATING:WATER,5 ZONE DOAS HTG COIL,Outlet,1
 Non-Parent Node Connection,CORE_ZN ZN FCU COOLING COIL INLET WATER NODE,COIL:COOLING:WATER,CORE_ZN ZN FCU COOLING COIL,Inlet,2
 Non-Parent Node Connection,CORE_ZN ZN FCU COOLING COIL OUTLET WATER NODE,COIL:COOLING:WATER,CORE_ZN ZN FCU COOLING COIL,Outlet,2
 Non-Parent Node Connection,CORE_ZN ZN FCU FAN OUTLET NODE,COIL:COOLING:WATER,CORE_ZN ZN FCU COOLING COIL,Inlet,1
 Non-Parent Node Connection,CORE_ZN ZN FCU COOLING COIL OUTLET NODE,COIL:COOLING:WATER,CORE_ZN ZN FCU COOLING COIL,Outlet,1
 Non-Parent Node Connection,PERIMETER_ZN_1 ZN FCU COOLING COIL INLET WATER NODE,COIL:COOLING:WATER,PERIMETER_ZN_1 ZN FCU COOLING COIL,Inlet,2
 Non-Parent Node Connection,PERIMETER_ZN_1 ZN FCU COOLING COIL OUTLET WATER NODE,COIL:COOLING:WATER,PERIMETER_ZN_1 ZN FCU COOLING COIL,Outlet,2
 Non-Parent Node Connection,PERIMETER_ZN_1 ZN FCU FAN OUTLET NODE,COIL:COOLING:WATER,PERIMETER_ZN_1 ZN FCU COOLING COIL,Inlet,1
 Non-Parent Node Connection,PERIMETER_ZN_1 ZN FCU COOLING COIL OUTLET NODE,COIL:COOLING:WATER,PERIMETER_ZN_1 ZN FCU COOLING COIL,Outlet,1
 Non-Parent Node Connection,PERIMETER_ZN_2 ZN FCU COOLING COIL INLET WATER NODE,COIL:COOLING:WATER,PERIMETER_ZN_2 ZN FCU COOLING COIL,Inlet,2
 Non-Parent Node Connection,PERIMETER_ZN_2 ZN FCU COOLING COIL OUTLET WATER NODE,COIL:COOLING:WATER,PERIMETER_ZN_2 ZN FCU COOLING COIL,Outlet,2
 Non-Parent Node Connection,PERIMETER_ZN_2 ZN FCU FAN OUTLET NODE,COIL:COOLING:WATER,PERIMETER_ZN_2 ZN FCU COOLING COIL,Inlet,1
 Non-Parent Node Connection,PERIMETER_ZN_2 ZN FCU COOLING COIL OUTLET NODE,COIL:COOLING:WATER,PERIMETER_ZN_2 ZN FCU COOLING COIL,Outlet,1
 Non-Parent Node Connection,PERIMETER_ZN_3 ZN FCU COOLING COIL INLET WATER NODE,COIL:COOLING:WATER,PERIMETER_ZN_3 ZN FCU COOLING COIL,Inlet,2
 Non-Parent Node Connection,PERIMETER_ZN_3 ZN FCU COOLING COIL OUTLET WATER NODE,COIL:COOLING:WATER,PERIMETER_ZN_3 ZN FCU COOLING COIL,Outlet,2
 Non-Parent Node Connection,PERIMETER_ZN_3 ZN FCU FAN OUTLET NODE,COIL:COOLING:WATER,PERIMETER_ZN_3 ZN FCU COOLING COIL,Inlet,1
 Non-Parent Node Connection,PERIMETER_ZN_3 ZN FCU COOLING COIL OUTLET NODE,COIL:COOLING:WATER,PERIMETER_ZN_3 ZN FCU COOLING COIL,Outlet,1
 Non-Parent Node Connection,PERIMETER_ZN_4 ZN FCU COOLING COIL INLET WATER NODE,COIL:COOLING:WATER,PERIMETER_ZN_4 ZN FCU COOLING COIL,Inlet,2
 Non-Parent Node Connection,PERIMETER_ZN_4 ZN FCU COOLING COIL OUTLET WATER NODE,COIL:COOLING:WATER,PERIMETER_ZN_4 ZN FCU COOLING COIL,Outlet,2
 Non-Parent Node Connection,PERIMETER_ZN_4 ZN FCU FAN OUTLET NODE,COIL:COOLING:WATER,PERIMETER_ZN_4 ZN FCU COOLING COIL,Inlet,1
 Non-Parent Node Connection,PERIMETER_ZN_4 ZN FCU COOLING COIL OUTLET NODE,COIL:COOLING:WATER,PERIMETER_ZN_4 ZN FCU COOLING COIL,Outlet,1
 Non-Parent Node Connection,5 ZONE DOAS CLG COIL INLET WATER NODE,COIL:COOLING:WATER,5 ZONE DOAS CLG COIL,Inlet,2
 Non-Parent Node Connection,5 ZONE DOAS CLG COIL OUTLET WATER NODE,COIL:COOLING:WATER,5 ZONE DOAS CLG COIL,Outlet,2
 Non-Parent Node Connection,5 ZONE DOAS MIXED AIR NODE,COIL:COOLING:WATER,5 ZONE DOAS CLG COIL,Inlet,1
 Non-Parent Node Connection,5 ZONE DOAS CLG COIL OUTLET AIR NODE,COIL:COOLING:WATER,5 ZONE DOAS CLG COIL,Outlet,1
 Non-Parent Node Connection,5 ZONE DOAS SUPPLY INLET NODE,FAN:VARIABLEVOLUME,DOAS EXHAUST FAN,Inlet,1
 Non-Parent Node Connection,DOAS EXHAUST FAN OUTLET AIR NODE,FAN:VARIABLEVOLUME,DOAS EXHAUST FAN,Outlet,1
 Non-Parent Node Connection,5 ZONE DOAS HTG COIL OUTLET AIR NODE,FAN:VARIABLEVOLUME,DOAS SUPPLY FAN,Inlet,1
 Non-Parent Node Connection,5 ZONE DOAS SUPPLY OUTLET NODE,FAN:VARIABLEVOLUME,DOAS SUPPLY FAN,Outlet,1
 Non-Parent Node Connection,CORE_ZN ZN FCU MIXED AIR NODE,FAN:ONOFF,CORE_ZN ZN FAN COIL FAN,Inlet,1
 Non-Parent Node Connection,CORE_ZN ZN FCU FAN OUTLET NODE,FAN:ONOFF,CORE_ZN ZN FAN COIL FAN,Outlet,1
 Non-Parent Node Connection,PERIMETER_ZN_1 ZN FCU MIXED AIR NODE,FAN:ONOFF,PERIMETER_ZN_1 ZN FAN COIL FAN,Inlet,1
 Non-Parent Node Connection,PERIMETER_ZN_1 ZN FCU FAN OUTLET NODE,FAN:ONOFF,PERIMETER_ZN_1 ZN FAN COIL FAN,Outlet,1
 Non-Parent Node Connection,PERIMETER_ZN_2 ZN FCU MIXED AIR NODE,FAN:ONOFF,PERIMETER_ZN_2 ZN FAN COIL FAN,Inlet,1
 Non-Parent Node Connection,PERIMETER_ZN_2 ZN FCU FAN OUTLET NODE,FAN:ONOFF,PERIMETER_ZN_2 ZN FAN COIL FAN,Outlet,1
 Non-Parent Node Connection,PERIMETER_ZN_3 ZN FCU MIXED AIR NODE,FAN:ONOFF,PERIMETER_ZN_3 ZN FAN COIL FAN,Inlet,1
 Non-Parent Node Connection,PERIMETER_ZN_3 ZN FCU FAN OUTLET NODE,FAN:ONOFF,PERIMETER_ZN_3 ZN FAN COIL FAN,Outlet,1
 Non-Parent Node Connection,PERIMETER_ZN_4 ZN FCU MIXED AIR NODE,FAN:ONOFF,PERIMETER_ZN_4 ZN FAN COIL FAN,Inlet,1
 Non-Parent Node Connection,PERIMETER_ZN_4 ZN FCU FAN OUTLET NODE,FAN:ONOFF,PERIMETER_ZN_4 ZN FAN COIL FAN,Outlet,1
 Non-Parent Node Connection,5 ZONE DOAS CLG COIL OUTLET AIR NODE,CONTROLLER:WATERCOIL,5 ZONE DOAS CLG COIL CONTROLLER,Sensor,1
 Non-Parent Node Connection,5 ZONE DOAS CLG COIL INLET WATER NODE,CONTROLLER:WATERCOIL,5 ZONE DOAS CLG COIL CONTROLLER,Actuator,1
 Non-Parent Node Connection,5 ZONE DOAS HTG COIL OUTLET AIR NODE,CONTROLLER:WATERCOIL,5 ZONE DOAS HTG COIL CONTROLLER,Sensor,1
 Non-Parent Node Connection,5 ZONE DOAS HTG COIL INLET WATER NODE,CONTROLLER:WATERCOIL,5 ZONE DOAS HTG COIL CONTROLLER,Actuator,1
 Non-Parent Node Connection,5 ZONE DOAS DEMAND OUTLET NODE,AIRLOOPHVAC:ZONEMIXER,AIR LOOP HVAC ZONE MIXER 1,Outlet,1
 Non-Parent Node Connection,PERIMETER_ZN_1 ZN RETURN AIR NODE,AIRLOOPHVAC:ZONEMIXER,AIR LOOP HVAC ZONE MIXER 1,Inlet,1
 Non-Parent Node Connection,CORE_ZN ZN RETURN AIR NODE,AIRLOOPHVAC:ZONEMIXER,AIR LOOP HVAC ZONE MIXER 1,Inlet,1
 Non-Parent Node Connection,PERIMETER_ZN_4 ZN RETURN AIR NODE,AIRLOOPHVAC:ZONEMIXER,AIR LOOP HVAC ZONE MIXER 1,Inlet,1
 Non-Parent Node Connection,PERIMETER_ZN_2 ZN RETURN AIR NODE,AIRLOOPHVAC:ZONEMIXER,AIR LOOP HVAC ZONE MIXER 1,Inlet,1
 Non-Parent Node Connection,PERIMETER_ZN_3 ZN RETURN AIR NODE,AIRLOOPHVAC:ZONEMIXER,AIR LOOP HVAC ZONE MIXER 1,Inlet,1
 Non-Parent Node Connection,5 ZONE DOAS MIXED AIR NODE,CONTROLLER:OUTDOORAIR,5 ZONE DOAS OUTDOOR AIR CONTROLLER,Sensor,1
 Non-Parent Node Connection,5 ZONE DOAS OUTDOOR AIR NODE,CONTROLLER:OUTDOORAIR,5 ZONE DOAS OUTDOOR AIR CONTROLLER,Actuator,1
 Non-Parent Node Connection,5 ZONE DOAS RELIEF AIR NODE,CONTROLLER:OUTDOORAIR,5 ZONE DOAS OUTDOOR AIR CONTROLLER,Actuator,1
 Non-Parent Node Connection,DOAS EXHAUST FAN OUTLET AIR NODE,CONTROLLER:OUTDOORAIR,5 ZONE DOAS OUTDOOR AIR CONTROLLER,Sensor,1
 Non-Parent Node Connection,CHILLED WATER LOOP SECONDARY PUMP INLET WATER NODE,PUMP:VARIABLESPEED,CHILLED WATER LOOP SECONDARY PUMP,Inlet,1
 Non-Parent Node Connection,CHILLED WATER LOOP SECONDARY PUMP OUTLET WATER NODE,PUMP:VARIABLESPEED,CHILLED WATER LOOP SECONDARY PUMP,Outlet,1
 Non-Parent Node Connection,HOT WATER LOOP SUPPLY INLET NODE,PUMP:VARIABLESPEED,HOT WATER LOOP PUMP,Inlet,1
 Non-Parent Node Connection,HOT WATER LOOP PUMP OUTLET WATER NODE,PUMP:VARIABLESPEED,HOT WATER LOOP PUMP,Outlet,1
 Non-Parent Node Connection,MAIN SERVICE WATER LOOP SUPPLY INLET NODE,PUMP:VARIABLESPEED,MAIN SERVICE WATER LOOP WATER MAINS PRESSURE DRIVEN,Inlet,1
 Non-Parent Node Connection,MAIN SERVICE WATER LOOP WATER MAINS PRESSURE DRIVEN OUTLET WATER NODE,PUMP:VARIABLESPEED,MAIN SERVICE WATER LOOP WATER MAINS PRESSURE DRIVEN,Outlet,1
 Non-Parent Node Connection,NODE 1,PUMP:CONSTANTSPEED,CHILLED WATER LOOP PRIMARY PUMP,Inlet,1
 Non-Parent Node Connection,CHILLED WATER LOOP PRIMARY PUMP OUTLET WATER NODE,PUMP:CONSTANTSPEED,CHILLED WATER LOOP PRIMARY PUMP,Outlet,1
 Non-Parent Node Connection,CONDENSER WATER LOOP SUPPLY INLET NODE,PUMP:CONSTANTSPEED,CONDENSER WATER LOOP CONSTANT PUMP,Inlet,1
 Non-Parent Node Connection,CONDENSER WATER LOOP CONSTANT PUMP OUTLET WATER NODE,PUMP:CONSTANTSPEED,CONDENSER WATER LOOP CONSTANT PUMP,Outlet,1
 Non-Parent Node Connection,CHILLED WATER LOOP SUPPLY INLET NODE,PLANTEQUIPMENTOPERATION:COMPONENTSETPOINT,CHILLED WATER LOOP SETPOINT OPERATION SCHEME,Sensor,1
 Non-Parent Node Connection,NODE 1,PLANTEQUIPMENTOPERATION:COMPONENTSETPOINT,CHILLED WATER LOOP SETPOINT OPERATION SCHEME,Sensor,1
 Non-Parent Node Connection,NREL ZNE READY 2017 WATERCOOLED  ROTARY SCREW CHILLER 0 SUPPLY INLET WATER NODE,PLANTEQUIPMENTOPERATION:COMPONENTSETPOINT,CHILLED WATER LOOP SETPOINT OPERATION SCHEME,Sensor,1
 Non-Parent Node Connection,NREL ZNE READY 2017 WATERCOOLED  ROTARY SCREW CHILLER 0 SUPPLY OUTLET WATER NODE,PLANTEQUIPMENTOPERATION:COMPONENTSETPOINT,CHILLED WATER LOOP SETPOINT OPERATION SCHEME,Sensor,1
