Program Version,EnergyPlus, Version 25.1.0-1c11a3d85f, YMD=2026.02.05 13:11,
   ** Warning ** ProcessScheduleInput: Schedule:Day:Interval = 5 ZONE DOAS OCC SCH DEFAULT
   **   ~~~   ** Schedule Type Limits Name is empty.
   **   ~~~   ** Schedule will not be validated.
   ** Warning ** ProcessScheduleInput: Schedule:Day:Interval = 5 ZONE DOAS OCC SCH SUMMER DESIGN DAY
   **   ~~~   ** Schedule Type Limits Name is empty.
   **   ~~~   ** Schedule will not be validated.
   ** Warning ** ProcessScheduleInput: Schedule:Day:Interval = 5 ZONE DOAS OCC SCH WINTER DESIGN DAY
   **   ~~~   ** Schedule Type Limits Name is empty.
   **   ~~~   ** Schedule will not be validated.
   ** Warning ** ProcessScheduleInput: Schedule:Day:Interval = ECONOMIZER MAX OA FRACTION 70 PCT DEFAULT
   **   ~~~   ** Schedule Type Limits Name is empty.
   **   ~~~   ** Schedule will not be validated.
   ** Warning ** ProcessScheduleInput: Schedule:Day:Interval = OFFICESMALL_BUSINESS_SCH DEFAULT
   **   ~~~   ** Schedule Type Limits Name is empty.
   **   ~~~   ** Schedule will not be validated.
   ** Warning ** ProcessScheduleInput: Schedule:Day:Interval = OFFICESMALL_BUSINESS_SCH SUMMER DESIGN DAY
   **   ~~~   ** Schedule Type Limits Name is empty.
   **   ~~~   ** Schedule will not be validated.
   ** Warning ** ProcessScheduleInput: Schedule:Day:Interval = OFFICESMALL_BUSINESS_SCH WINTER DESIGN DAY
   **   ~~~   ** Schedule Type Limits Name is empty.
   **   ~~~   ** Schedule will not be validated.
   ** Warning ** ProcessScheduleInput: Schedule:Day:Interval = OFFICESMALL_BUSINESS_SCH WKDY DAY
   **   ~~~   ** Schedule Type Limits Name is empty.
   **   ~~~   ** Schedule will not be validated.
   ** Warning ** ProcessScheduleInput: Schedule:Day:Interval = SCHEDULE DAY 1
   **   ~~~   ** Schedule Type Limits Name is empty.
   **   ~~~   ** Schedule will not be validated.
   ** Warning ** ProcessScheduleInput: Schedule:Day:Interval = SCHEDULE DAY 2
   **   ~~~   ** Schedule Type Limits Name is empty.
   **   ~~~   ** Schedule will not be validated.
   ** Warning ** ProcessScheduleInput: Schedule:Year = 5 ZONE DOAS OCC SCH
   **   ~~~   ** Schedule Type Limits Name is empty.
   **   ~~~   ** Schedule will not be validated.
   ** Warning ** ProcessScheduleInput: Schedule:Year = OFFICESMALL_BUSINESS_SCH
   **   ~~~   ** Schedule Type Limits Name is empty.
   **   ~~~   ** Schedule will not be validated.
   ************* Beginning Zone Sizing Calculations
   ** Warning ** CheckUsedConstructions: There are 16 nominally unused constructions in input.
   **   ~~~   ** For explicit details on each unused construction, use Output:Diagnostics,DisplayExtraWarnings;
   ** Warning ** GetInternalHeatGains: People="OFFICE WHOLEBUILDING - SM OFFICE PEOPLE" has comfort related schedules but no thermal comfort model selected.
   **   ~~~   ** If schedules are specified for air velocity, clothing insulation, and/or work efficiency but no thermal comfort
   **   ~~~   ** thermal comfort model is selected, the schedules will be listed as unused schedules in the .err file.
   **   ~~~   ** To avoid these errors, select a valid thermal comfort model or eliminate these schedules in the PEOPLE input.
   ** Warning ** GetInternalHeatGains: People="OFFICE WHOLEBUILDING - SM OFFICE PEOPLE" has comfort related schedules but no thermal comfort model selected.
   **   ~~~   ** If schedules are specified for air velocity, clothing insulation, and/or work efficiency but no thermal comfort
   **   ~~~   ** thermal comfort model is selected, the schedules will be listed as unused schedules in the .err file.
   **   ~~~   ** To avoid these errors, select a valid thermal comfort model or eliminate these schedules in the PEOPLE input.
   ** Warning ** GetInternalHeatGains: People="OFFICE WHOLEBUILDING - SM OFFICE PEOPLE" has comfort related schedules but no thermal comfort model selected.
   **   ~~~   ** If schedules are specified for air velocity, clothing insulation, and/or work efficiency but no thermal comfort
   **   ~~~   ** thermal comfort model is selected, the schedules will be listed as unused schedules in the .err file.
   **   ~~~   ** To avoid these errors, select a valid thermal comfort model or eliminate these schedules in the PEOPLE input.
   ** Warning ** GetInternalHeatGains: People="OFFICE WHOLEBUILDING - SM OFFICE PEOPLE" has comfort related schedules but no thermal comfort model selected.
   **   ~~~   ** If schedules are specified for air velocity, clothing insulation, and/or work efficiency but no thermal comfort
   **   ~~~   ** thermal comfort model is selected, the schedules will be listed as unused schedules in the .err file.
   **   ~~~   ** To avoid these errors, select a valid thermal comfort model or eliminate these schedules in the PEOPLE input.
   ** Warning ** GetInternalHeatGains: People="OFFICE WHOLEBUILDING - SM OFFICE PEOPLE" has comfort related schedules but no thermal comfort model selected.
   **   ~~~   ** If schedules are specified for air velocity, clothing insulation, and/or work efficiency but no thermal comfort
   **   ~~~   ** thermal comfort model is selected, the schedules will be listed as unused schedules in the .err file.
   **   ~~~   ** To avoid these errors, select a valid thermal comfort model or eliminate these schedules in the PEOPLE input.
   ** Warning ** GetDaylightingControls: Fraction of zone or space controlled by the Daylighting reference points is < 1.0.
   **   ~~~   ** ..discovered in Daylighting:Controls="PERIMETER_ZN_1 ZN DAYLIGHTINGCONTROLS", only 0.274 of the zone or space is controlled.
   ** Warning ** GetDaylightingControls: Fraction of zone or space controlled by the Daylighting reference points is < 1.0.
   **   ~~~   ** ..discovered in Daylighting:Controls="PERIMETER_ZN_2 ZN DAYLIGHTINGCONTROLS", only 0.282 of the zone or space is controlled.
   ** Warning ** GetDaylightingControls: Fraction of zone or space controlled by the Daylighting reference points is < 1.0.
   **   ~~~   ** ..discovered in Daylighting:Controls="PERIMETER_ZN_3 ZN DAYLIGHTINGCONTROLS", only 0.271 of the zone or space is controlled.
   ** Warning ** GetDaylightingControls: Fraction of zone or space controlled by the Daylighting reference points is < 1.0.
   **   ~~~   ** ..discovered in Daylighting:Controls="PERIMETER_ZN_4 ZN DAYLIGHTINGCONTROLS", only 0.282 of the zone or space is controlled.
   ** Warning ** GetElectricEIRChillerInput: Chiller:Electric:EIR="NREL ZNE READY 2017 WATERCOOLED  ROTARY SCREW CHILLER 0 10TONS 0.75KW/TON"
   **   ~~~   ** Energy input ratio as a function of temperature curve output is not equal to 1.0 (+ or - 10%) at reference conditions.
   **   ~~~   ** Curve output at reference conditions = 1.205
   ************* Beginning System Sizing Calculations
   ** Warning ** Since Zone Minimum Air Flow Input Method = CONSTANT, input for Fixed Minimum Air Flow Rate will be ignored.
   **   ~~~   ** Occurs in AirTerminal:SingleDuct:VAV:NoReheat = CORE_ZN ZN AIR TERMINAL
   ** Warning ** Since Zone Minimum Air Flow Input Method = CONSTANT, input for Fixed Minimum Air Flow Rate will be ignored.
   **   ~~~   ** Occurs in AirTerminal:SingleDuct:VAV:NoReheat = PERIMETER_ZN_1 ZN AIR TERMINAL
   ** Warning ** Since Zone Minimum Air Flow Input Method = CONSTANT, input for Fixed Minimum Air Flow Rate will be ignored.
   **   ~~~   ** Occurs in AirTerminal:SingleDuct:VAV:NoReheat = PERIMETER_ZN_2 ZN AIR TERMINAL
   ** Warning ** Since Zone Minimum Air Flow Input Method = CONSTANT, input for Fixed Minimum Air Flow Rate will be ignored.
   **   ~~~   ** Occurs in AirTerminal:SingleDuct:VAV:NoReheat = PERIMETER_ZN_3 ZN AIR TERMINAL
   ** Warning ** Since Zone Minimum Air Flow Input Method = CONSTANT, input for Fixed Minimum Air Flow Rate will be ignored.
   **   ~~~   ** Occurs in AirTerminal:SingleDuct:VAV:NoReheat = PERIMETER_ZN_4 ZN AIR TERMINAL
   ************* Beginning Plant Sizing Calculations
   ** Warning ** GetOAControllerInputs: Controller:MechanicalVentilation="5 ZONE DOAS MECHANICAL VENTILATION CONTROLLER"
   **   ~~~   ** Cannot locate a matching DesignSpecification:ZoneAirDistribution object for Zone="PERIMETER_ZN_1 ZN".
   **   ~~~   ** Using default zone air distribution effectiveness of 1.0 for heating and cooling.
   ** Warning ** Controller:MechanicalVentilation="5 ZONE DOAS MECHANICAL VENTILATION CONTROLLER", Zone OA/person rate
   **   ~~~   ** For Zone="PERIMETER_ZN_1 ZN".
   **   ~~~   ** Zone outside air per person rate not set in Design Specification Outdoor Air Object="OFFICE WHOLEBUILDING - SM OFFICE VENTILATION".
   ** Warning ** GetOAControllerInputs: Controller:MechanicalVentilation="5 ZONE DOAS MECHANICAL VENTILATION CONTROLLER"
   **   ~~~   ** Cannot locate a matching DesignSpecification:ZoneAirDistribution object for Zone="CORE_ZN ZN".
   **   ~~~   ** Using default zone air distribution effectiveness of 1.0 for heating and cooling.
   ** Warning ** Controller:MechanicalVentilation="5 ZONE DOAS MECHANICAL VENTILATION CONTROLLER", Zone OA/person rate
   **   ~~~   ** For Zone="CORE_ZN ZN".
   **   ~~~   ** Zone outside air per person rate not set in Design Specification Outdoor Air Object="OFFICE WHOLEBUILDING - SM OFFICE VENTILATION".
   ** Warning ** GetOAControllerInputs: Controller:MechanicalVentilation="5 ZONE DOAS MECHANICAL VENTILATION CONTROLLER"
   **   ~~~   ** Cannot locate a matching DesignSpecification:ZoneAirDistribution object for Zone="PERIMETER_ZN_4 ZN".
   **   ~~~   ** Using default zone air distribution effectiveness of 1.0 for heating and cooling.
   ** Warning ** Controller:MechanicalVentilation="5 ZONE DOAS MECHANICAL VENTILATION CONTROLLER", Zone OA/person rate
   **   ~~~   ** For Zone="PERIMETER_ZN_4 ZN".
   **   ~~~   ** Zone outside air per person rate not set in Design Specification Outdoor Air Object="OFFICE WHOLEBUILDING - SM OFFICE VENTILATION".
   ** Warning ** GetOAControllerInputs: Controller:MechanicalVentilation="5 ZONE DOAS MECHANICAL VENTILATION CONTROLLER"
   **   ~~~   ** Cannot locate a matching DesignSpecification:ZoneAirDistribution object for Zone="PERIMETER_ZN_2 ZN".
   **   ~~~   ** Using default zone air distribution effectiveness of 1.0 for heating and cooling.
   ** Warning ** Controller:MechanicalVentilation="5 ZONE DOAS MECHANICAL VENTILATION CONTROLLER", Zone OA/person rate
   **   ~~~   ** For Zone="PERIMETER_ZN_2 ZN".
   **   ~~~   ** Zone outside air per person rate not set in Design Specification Outdoor Air Object="OFFICE WHOLEBUILDING - SM OFFICE VENTILATION".
   ** Warning ** GetOAControllerInputs: Controller:MechanicalVentilation="5 ZONE DOAS MECHANICAL VENTILATION CONTROLLER"
   **   ~~~   ** Cannot locate a matching DesignSpecification:ZoneAirDistribution object for Zone="PERIMETER_ZN_3 ZN".
   **   ~~~   ** Using default zone air distribution effectiveness of 1.0 for heating and cooling.
   ** Warning ** Controller:MechanicalVentilation="5 ZONE DOAS MECHANICAL VENTILATION CONTROLLER", Zone OA/person rate
   **   ~~~   ** For Zone="PERIMETER_ZN_3 ZN".
   **   ~~~   ** Zone outside air per person rate not set in Design Specification Outdoor Air Object="OFFICE WHOLEBUILDING - SM OFFICE VENTILATION".
   ** Warning ** In calculating the design coil UA for Coil:Cooling:Water 5 ZONE DOAS CLG COIL
   **   ~~~   ** no apparatus dew-point can be found for the initial entering and leaving conditions;
   **   ~~~   ** the coil outlet design conditions will be changed to correct the problem.
   **   ~~~   ** The initial design conditions are: Tair,in = 33.5840
   **   ~~~   **                                    Wair,in = 1.653578E-002
   **   ~~~   **                                    Twater,in = 6.6667
   **   ~~~   **                                    Tair,out = 14.4571
   **   ~~~   **                                    Wair,out = 8.500000E-003
   **   ~~~   ** The revised design conditions are: Tair,out = 13.7134
   **   ~~~   **                                    Wair,out = 8.800446E-003
   ** Warning ** Check input. Pump nominal power or motor efficiency is set to 0, for pump=MAIN SERVICE WATER LOOP WATER MAINS PRESSURE DRIVEN
   ** Warning ** The range for the cooling tower PROPELLER OR AXIAL VARIABLE SPEED FAN OPEN COOLING TOWER 40.2 GPM/HP likely exceeds the bounds of the model. The maximum range of the model is used 11.1111.
   **   ~~~   **  ... Occurrence info = TAMPA-MACDILL.AFB_FL_USA ANN CLG .4% CONDNS WB=>MDB, 08/21 00:00 - 00:10
   ** Warning ** Output:Meter: invalid Key Name="DISTRICTCOOLING:FACILITY" - not found.
   ** Warning ** Output:Meter: invalid Key Name="DISTRICTHEATING:FACILITY" - not found.
   ** Warning ** Output:Meter:MeterFileOnly requested for "Electricity:Facility" (TimeStep), already on "Output:Meter". Will report to both eplusout.eso and eplusout.mtr
   ************* Testing Individual Branch Integrity
   ************* All Branches passed integrity testing
   ************* Testing Individual Supply Air Path Integrity
   ************* All Supply Air Paths passed integrity testing
   ************* Testing Individual Return Air Path Integrity
   ************* All Return Air Paths passed integrity testing
   ************* No node connection errors were found.
   ************* Beginning Simulation
   ** Warning ** Processing Monthly Tabular Reports: Variable names not valid for this simulation
   **   ~~~   ** ...use Output:Diagnostics,DisplayExtraWarnings; to show more details on individual variables.
   ** Warning ** CoolingTower:VariableSpeed "PROPELLER OR AXIAL VARIABLE SPEED FAN OPEN COOLING TOWER 40.2 GPM/HP" - Tower range temperature is outside model boundaries at 8.70E-004.
   **   ~~~   **  ...Valid range = 1.11 to 11.11. Occurrence info = RUN PERIOD 1, 01/01 00:00 - 00:10
   **   ~~~   **  ...Tower range temperature passed to the model = 8.70141E-004
   **   ~~~   **  ...Range temperatures outside model boundaries may not adversely affect tower performance.
   **   ~~~   **  ...This is not an unexpected occurrence when simulating actual conditions.
   ** Warning ** CalcEquipmentFlowRates: "MAIN SERVICE WATER USE 0.06GPM 140F" - Target water temperature is greater than the hot water temperature by (0.58 C)
   **   ~~~   **  Environment=RUN PERIOD 1, at Simulation time=01/02 07:00 - 07:10
   **   ~~~   ** ...target water temperature     = 60.00 C
   **   ~~~   ** ...hot water temperature        = 59.42 C
   **   ~~~   ** ...Target water temperature should be less than or equal to the hot water temperature. Verify temperature setpoints and schedules.
   ** Warning ** CoolingTower:VariableSpeed "PROPELLER OR AXIAL VARIABLE SPEED FAN OPEN COOLING TOWER 40.2 GPM/HP" - Inlet air wet-bulb temperature is outside model boundaries at -1.20.
   **   ~~~   **  ...Valid range = -1.00 to 26.67. Occurrence info = RUN PERIOD 1, 01/04 05:50 - 06:00
   **   ~~~   **  ...Inlet air wet-bulb temperature passed to the model = -1.000000
   **   ~~~   **  ...Wet-bulb temperatures outside model boundaries may not adversely affect tower performance.
   ** Warning ** CoolingTower:VariableSpeed "PROPELLER OR AXIAL VARIABLE SPEED FAN OPEN COOLING TOWER 40.2 GPM/HP" - Inlet air wet-bulb temperature is outside model boundaries at -1.24.
   **   ~~~   **  ...Valid range = -1.00 to 26.67. Occurrence info = RUN PERIOD 1, 01/04 06:00 - 06:03
   **   ~~~   **  ...Inlet air wet-bulb temperature passed to the model = -1.000000
   **   ~~~   **  ...Wet-bulb temperatures outside model boundaries may not adversely affect tower performance.
   ** Warning ** CoolingTower:VariableSpeed "PROPELLER OR AXIAL VARIABLE SPEED FAN OPEN COOLING TOWER 40.2 GPM/HP" - Inlet air wet-bulb temperature is outside model boundaries at -1.24.
   **   ~~~   **  ...Valid range = -1.00 to 26.67. Occurrence info = RUN PERIOD 1, 01/04 06:03 - 06:05
   **   ~~~   **  ...Inlet air wet-bulb temperature passed to the model = -1.000000
   **   ~~~   **  ...Wet-bulb temperatures outside model boundaries may not adversely affect tower performance.
   ** Warning ** CoolingTower:VariableSpeed "PROPELLER OR AXIAL VARIABLE SPEED FAN OPEN COOLING TOWER 40.2 GPM/HP" - Inlet air wet-bulb temperature is outside model boundaries at -1.24.
   **   ~~~   **  ...Valid range = -1.00 to 26.67. Occurrence info = RUN PERIOD 1, 01/04 06:08 - 06:10
   **   ~~~   **  ...Inlet air wet-bulb temperature passed to the model = -1.000000
   **   ~~~   **  ...Wet-bulb temperatures outside model boundaries may not adversely affect tower performance.
   ** Warning ** CoolingTower:VariableSpeed "PROPELLER OR AXIAL VARIABLE SPEED FAN OPEN COOLING TOWER 40.2 GPM/HP" - Inlet air wet-bulb temperature is outside model boundaries at -1.27.
   **   ~~~   **  ...Valid range = -1.00 to 26.67. Occurrence info = RUN PERIOD 1, 01/04 06:10 - 06:20
   **   ~~~   **  ...Inlet air wet-bulb temperature passed to the model = -1.000000
   **   ~~~   **  ...Wet-bulb temperatures outside model boundaries may not adversely affect tower performance.
   ** Warning ** The resource referenced by LifeCycleCost:UsePriceEscalation= "U.S. AVG  COMMERCIAL-ELECTRICITY" has no energy cost. 
   **   ~~~   ** ... It is likely that the wrong resource is used. The resource should match the meter used in Utility:Tariff.
   ** Warning ** The resource referenced by LifeCycleCost:UsePriceEscalation= "U.S. AVG  COMMERCIAL-DISTILLATE OIL" has no energy cost. 
   **   ~~~   ** ... It is likely that the wrong resource is used. The resource should match the meter used in Utility:Tariff.
   ** Warning ** The resource referenced by LifeCycleCost:UsePriceEscalation= "U.S. AVG  COMMERCIAL-RESIDUAL OIL" has no energy cost. 
   **   ~~~   ** ... It is likely that the wrong resource is used. The resource should match the meter used in Utility:Tariff.
   ** Warning ** The resource referenced by LifeCycleCost:UsePriceEscalation= "U.S. AVG  COMMERCIAL-NATURAL GAS" has no energy cost. 
   **   ~~~   ** ... It is likely that the wrong resource is used. The resource should match the meter used in Utility:Tariff.
   ** Warning ** The resource referenced by LifeCycleCost:UsePriceEscalation= "U.S. AVG  COMMERCIAL-COAL" has no energy cost. 
   **   ~~~   ** ... It is likely that the wrong resource is used. The resource should match the meter used in Utility:Tariff.
   ************* Simulation Error Summary *************
   ************* There are 19 unused schedules in input.
   ************* There are 4 unused day schedules in input.
   ************* Use Output:Diagnostics,DisplayUnusedSchedules; to see them.
   *************
   ************* ===== Recurring Error Summary =====
   ************* The following recurring error messages occurred.
   *************
   *************  ** Warning ** The range for the cooling tower PROPELLER OR AXIAL VARIABLE SPEED FAN OPEN COOLING TOWER 40.2 GPM/HP likely exceeds the bounds of the model. The maximum range of the model is used 11.1111
   *************  **   ~~~   **   This error occurred 247221 total times;
   *************  **   ~~~   **   during Warmup 4324 times;
   *************  **   ~~~   **   during Sizing 0 times.
   *************
   *************  ** Warning ** CoolingTower:VariableSpeed "PROPELLER OR AXIAL VARIABLE SPEED FAN OPEN COOLING TOWER 40.2 GPM/HP" - Tower range temperature is out of range error continues...
   *************  **   ~~~   **   This error occurred 49137 total times;
   *************  **   ~~~   **   during Warmup 0 times;
   *************  **   ~~~   **   during Sizing 0 times.
   *************  **   ~~~   **   Max=1.111083  Min=0.000071
   *************
   *************  ** Warning ** "MAIN SERVICE WATER USE 0.06GPM 140F" - Target water temperature should be less than or equal to the hot water temperature error continues...
   *************  **   ~~~   **   This error occurred 1418475 total times;
   *************  **   ~~~   **   during Warmup 0 times;
   *************  **   ~~~   **   during Sizing 0 times.
   *************  **   ~~~   **   Max=1.917257  Min=0.164092
   *************
   *************  ** Warning ** CoolingTower:VariableSpeed "PROPELLER OR AXIAL VARIABLE SPEED FAN OPEN COOLING TOWER 40.2 GPM/HP" - Inlet air wet-bulb temperature is out of range error continues...
   *************  **   ~~~   **   This error occurred 468 total times;
   *************  **   ~~~   **   during Warmup 0 times;
   *************  **   ~~~   **   during Sizing 0 times.
   *************  **   ~~~   **   Max=27.795301  Min=-5.384841
   *************
   *************
   ************* ===== Final Error Summary =====
   ************* The following error categories occurred.  Consider correcting or noting.
   ************* Nominally Unused Constructions
   ************* ..The nominally unused constructions warning is provided to alert you to potential conditions that can cause
   ************* ..extra time during simulation. Each construction is calculated by the algorithm indicated in the HeatBalanceAlgorithm
   ************* ..object. You may remove the constructions indicated (when you use the DisplayExtraWarnings option).
   *************
   ************* EnergyPlus Warmup Error Summary. During Warmup: 0 Warning; 0 Severe Errors.
   ************* EnergyPlus Sizing Error Summary. During Sizing: 16 Warning; 0 Severe Errors.
   ************* EnergyPlus Completed Successfully-- 1715358 Warning; 0 Severe Errors; Elapsed Time=00hr 00min 52.12sec
